/*---------------------------------------------------------------------------*\
| =========                 |                                                 |
| \\      /  F ield         | foam-extend: Open Source CFD                    |
|  \\    /   O peration     | Version:     4.0                                |
|   \\  /    A nd           | Web:         http://www.foam-extend.org         |
|    \\/     M anipulation  | For copyright notice see file Copyright         |
\*---------------------------------------------------------------------------*/
Build    : 4.0-268bb07d15d8
Exec     : steadyCompressibleFoam
Date     : Apr 19 2019
Time     : 00:47:18
Host     : ubuntu-14
PID      : 20107
CtrlDict : "/home/stas/foam/foam-extend-4.0/tutorials/compressible/steadyCompressibleFoam/transonicBump/system/controlDict"
Case     : /home/stas/foam/foam-extend-4.0/tutorials/compressible/steadyCompressibleFoam/transonicBump
nProcs   : 1
SigFpe   : Enabling floating point exception trapping (FOAM_SIGFPE).

// * * * * * * * * * * * * * * * * * * * * * * * * * * * * * * * * * * * * * //
Create time

Create mesh for time = 0


PIMPLE: Operating solver in PISO mode

Reading thermophysical properties

Selecting thermodynamics package hPsiThermo<pureMixture<constTransport<specieThermo<hConstThermo<perfectGas>>>>>

Reading field U

Reading/calculating face flux field phi

Creating turbulence model

Selecting RAS turbulence model laminar

Starting time loop

Creating divFlux for field phi
Creating MachNumber for field U
Creating minMaxField for field U
Creating minMaxField for field p
Creating minMaxField for field rho
Creating minMaxField for field T
Time = 1

BiCGStab:  Solving for Ux, Initial residual = 1, Final residual = 9.0833e-18, No Iterations 1
BiCGStab:  Solving for Uy, Initial residual = 0, Final residual = 0, No Iterations 0
BiCGStab:  Solving for p, Initial residual = 1, Final residual = 3.98321e-09, No Iterations 30
time step continuity errors : sum local = 0.0313143, global = 0.0112268, cumulative = 0.0112268
BiCGStab:  Solving for p, Initial residual = 0.542908, Final residual = 9.58384e-11, No Iterations 32
time step continuity errors : sum local = 0.0317705, global = 0.0054012, cumulative = 0.016628
BiCGStab:  Solving for h, Initial residual = 1, Final residual = 6.56838e-12, No Iterations 3
ExecutionTime = 0.16 s  ClockTime = 0 s

Flux divergence min = 0 max = 2198.01 average: 2.93138
Mach number min = 0.570588 max = 0.732525
Field U magnitude min = 0 max = 264.139
Field p min = 50001.1 max = 151753
Field rho min = 0.581145 max = 1.65453
Field T min = 298.582 max = 322.914
Time = 2

BiCGStab:  Solving for Ux, Initial residual = 0.30149, Final residual = 3.3918e-09, No Iterations 2
BiCGStab:  Solving for Uy, Initial residual = 0.373466, Final residual = 1.56547e-09, No Iterations 2
BiCGStab:  Solving for p, Initial residual = 0.449544, Final residual = 1.49631e-09, No Iterations 32
time step continuity errors : sum local = 0.0132098, global = -0.0109175, cumulative = 0.00571055
BiCGStab:  Solving for p, Initial residual = 0.310111, Final residual = 1.18782e-09, No Iterations 32
time step continuity errors : sum local = 0.0150299, global = -0.0140402, cumulative = -0.00832968
BiCGStab:  Solving for h, Initial residual = 0.172379, Final residual = 4.28631e-12, No Iterations 3
ExecutionTime = 0.23 s  ClockTime = 0 s

Flux divergence min = 0 max = 858.668 average: 1.48793
Mach number min = 0.550948 max = 0.745405
Field U magnitude min = 0 max = 272.049
Field p min = 50000 max = 181453
Field rho min = 0.577864 max = 1.91779
Field T min = 297.916 max = 330.802
Time = 3

BiCGStab:  Solving for Ux, Initial residual = 0.212764, Final residual = 1.69656e-09, No Iterations 2
BiCGStab:  Solving for Uy, Initial residual = 0.213889, Final residual = 1.17388e-09, No Iterations 2
BiCGStab:  Solving for p, Initial residual = 0.475776, Final residual = 9.46219e-11, No Iterations 32
time step continuity errors : sum local = 0.0163441, global = -0.00831006, cumulative = -0.0166397
BiCGStab:  Solving for p, Initial residual = 0.290361, Final residual = 1.9091e-10, No Iterations 32
time step continuity errors : sum local = 0.0167201, global = -0.0109299, cumulative = -0.0275696
BiCGStab:  Solving for h, Initial residual = 0.129542, Final residual = 7.93627e-12, No Iterations 3
ExecutionTime = 0.3 s  ClockTime = 0 s

Flux divergence min = 0 max = 418.397 average: 1.09146
Mach number min = 0.509637 max = 0.752993
Field U magnitude min = 0 max = 274.544
Field p min = 53880.1 max = 181798
Field rho min = 0.619905 max = 1.91454
Field T min = 298.657 max = 330.053
Time = 4

BiCGStab:  Solving for Ux, Initial residual = 0.168289, Final residual = 2.07675e-09, No Iterations 2
BiCGStab:  Solving for Uy, Initial residual = 0.146337, Final residual = 1.36433e-09, No Iterations 2
BiCGStab:  Solving for p, Initial residual = 0.395157, Final residual = 3.85836e-10, No Iterations 32
time step continuity errors : sum local = 0.0191267, global = -0.00340825, cumulative = -0.0309779
BiCGStab:  Solving for p, Initial residual = 0.252169, Final residual = 6.5653e-11, No Iterations 32
time step continuity errors : sum local = 0.0190034, global = -0.00594555, cumulative = -0.0369234
BiCGStab:  Solving for h, Initial residual = 0.114959, Final residual = 6.56163e-12, No Iterations 3
ExecutionTime = 0.37 s  ClockTime = 0 s

Flux divergence min = 0 max = 474.649 average: 1.09957
Mach number min = 0.476005 max = 0.755031
Field U magnitude min = 0 max = 273.798
Field p min = 62393.6 max = 166765
Field rho min = 0.713391 max = 1.78104
Field T min = 298.244 max = 328.095
Time = 5

BiCGStab:  Solving for Ux, Initial residual = 0.142022, Final residual = 2.20914e-09, No Iterations 2
BiCGStab:  Solving for Uy, Initial residual = 0.125616, Final residual = 1.55537e-09, No Iterations 2
BiCGStab:  Solving for p, Initial residual = 0.3367, Final residual = 6.98376e-09, No Iterations 31
time step continuity errors : sum local = 0.0196554, global = -0.00157206, cumulative = -0.0384955
BiCGStab:  Solving for p, Initial residual = 0.224676, Final residual = 9.61722e-09, No Iterations 31
time step continuity errors : sum local = 0.0196, global = -0.00376438, cumulative = -0.0422599
BiCGStab:  Solving for h, Initial residual = 0.102565, Final residual = 2.57447e-11, No Iterations 3
ExecutionTime = 0.44 s  ClockTime = 0 s

Flux divergence min = 0 max = 509.01 average: 0.988386
Mach number min = 0.437381 max = 0.770308
Field U magnitude min = 0 max = 278.094
Field p min = 69738.2 max = 152737
Field rho min = 0.797825 max = 1.72662
Field T min = 297.779 max = 326.612
Time = 6

BiCGStab:  Solving for Ux, Initial residual = 0.122305, Final residual = 2.14385e-09, No Iterations 2
BiCGStab:  Solving for Uy, Initial residual = 0.116473, Final residual = 1.64852e-09, No Iterations 2
BiCGStab:  Solving for p, Initial residual = 0.331669, Final residual = 1.75607e-09, No Iterations 32
time step continuity errors : sum local = 0.0198786, global = -0.000640321, cumulative = -0.0429002
BiCGStab:  Solving for p, Initial residual = 0.223674, Final residual = 1.47089e-09, No Iterations 31
time step continuity errors : sum local = 0.0197349, global = -0.00277928, cumulative = -0.0456795
BiCGStab:  Solving for h, Initial residual = 0.0963528, Final residual = 6.06313e-12, No Iterations 3
ExecutionTime = 0.51 s  ClockTime = 1 s

Flux divergence min = 0 max = 385.694 average: 0.923956
Mach number min = 0.421689 max = 0.783848
Field U magnitude min = 0 max = 283.207
Field p min = 72622.7 max = 151140
Field rho min = 0.835683 max = 1.70376
Field T min = 297.328 max = 326.513
Time = 7

BiCGStab:  Solving for Ux, Initial residual = 0.107947, Final residual = 1.96565e-09, No Iterations 2
BiCGStab:  Solving for Uy, Initial residual = 0.108844, Final residual = 1.64583e-09, No Iterations 2
BiCGStab:  Solving for p, Initial residual = 0.319119, Final residual = 1.55852e-09, No Iterations 30
time step continuity errors : sum local = 0.0200972, global = -0.000134747, cumulative = -0.0458142
BiCGStab:  Solving for p, Initial residual = 0.215927, Final residual = 8.81621e-10, No Iterations 30
time step continuity errors : sum local = 0.0197827, global = -0.00228337, cumulative = -0.0480976
BiCGStab:  Solving for h, Initial residual = 0.0918307, Final residual = 5.81658e-12, No Iterations 3
ExecutionTime = 0.57 s  ClockTime = 1 s

Flux divergence min = 0 max = 230.372 average: 0.888977
Mach number min = 0.418022 max = 0.794625
Field U magnitude min = 0 max = 287.247
Field p min = 74584.6 max = 149500
Field rho min = 0.859706 max = 1.6843
Field T min = 296.857 max = 326.1
Time = 8

BiCGStab:  Solving for Ux, Initial residual = 0.0966668, Final residual = 1.80256e-09, No Iterations 2
BiCGStab:  Solving for Uy, Initial residual = 0.101657, Final residual = 1.55301e-09, No Iterations 2
BiCGStab:  Solving for p, Initial residual = 0.304939, Final residual = 4.85425e-09, No Iterations 30
time step continuity errors : sum local = 0.0199771, global = 1.90551e-05, cumulative = -0.0480785
BiCGStab:  Solving for p, Initial residual = 0.207022, Final residual = 2.94556e-09, No Iterations 30
time step continuity errors : sum local = 0.0197622, global = -0.00210218, cumulative = -0.0501807
BiCGStab:  Solving for h, Initial residual = 0.086615, Final residual = 6.39511e-12, No Iterations 3
ExecutionTime = 0.64 s  ClockTime = 1 s

Flux divergence min = 0 max = 119.145 average: 0.856933
Mach number min = 0.400718 max = 0.802934
Field U magnitude min = 0 max = 290.066
Field p min = 75211.9 max = 149181
Field rho min = 0.863095 max = 1.66968
Field T min = 296.431 max = 324.339
Time = 9

BiCGStab:  Solving for Ux, Initial residual = 0.0877756, Final residual = 1.69341e-09, No Iterations 2
BiCGStab:  Solving for Uy, Initial residual = 0.0948977, Final residual = 1.43101e-09, No Iterations 2
BiCGStab:  Solving for p, Initial residual = 0.293189, Final residual = 4.73638e-10, No Iterations 32
time step continuity errors : sum local = 0.0197189, global = 6.38162e-06, cumulative = -0.0501743
BiCGStab:  Solving for p, Initial residual = 0.199167, Final residual = 2.94635e-09, No Iterations 31
time step continuity errors : sum local = 0.0195428, global = -0.0020562, cumulative = -0.0522305
BiCGStab:  Solving for h, Initial residual = 0.0813641, Final residual = 7.51527e-12, No Iterations 3
ExecutionTime = 0.71 s  ClockTime = 1 s

Flux divergence min = 0 max = 58.865 average: 0.830062
Mach number min = 0.388945 max = 0.809831
Field U magnitude min = 0 max = 292.027
Field p min = 75142.9 max = 148828
Field rho min = 0.863137 max = 1.66095
Field T min = 295.978 max = 323.807
Time = 10

BiCGStab:  Solving for Ux, Initial residual = 0.0806775, Final residual = 1.61137e-09, No Iterations 2
BiCGStab:  Solving for Uy, Initial residual = 0.08784, Final residual = 1.27898e-09, No Iterations 2
BiCGStab:  Solving for p, Initial residual = 0.279215, Final residual = 2.97952e-09, No Iterations 32
time step continuity errors : sum local = 0.0194316, global = -4.89665e-05, cumulative = -0.0522795
BiCGStab:  Solving for p, Initial residual = 0.19003, Final residual = 4.05463e-09, No Iterations 32
time step continuity errors : sum local = 0.0191491, global = -0.00203476, cumulative = -0.0543143
BiCGStab:  Solving for h, Initial residual = 0.0763969, Final residual = 8.19509e-12, No Iterations 3
ExecutionTime = 0.77 s  ClockTime = 1 s

Flux divergence min = 0 max = 39.9318 average: 0.805425
Mach number min = 0.381105 max = 0.816186
Field U magnitude min = 0 max = 293.951
Field p min = 75070 max = 148521
Field rho min = 0.860262 max = 1.6565
Field T min = 295.51 max = 323.52
Time = 11

BiCGStab:  Solving for Ux, Initial residual = 0.07498, Final residual = 1.54285e-09, No Iterations 2
BiCGStab:  Solving for Uy, Initial residual = 0.0816603, Final residual = 1.13624e-09, No Iterations 2
BiCGStab:  Solving for p, Initial residual = 0.267127, Final residual = 1.38292e-09, No Iterations 34
time step continuity errors : sum local = 0.0190628, global = -0.000107719, cumulative = -0.054422
BiCGStab:  Solving for p, Initial residual = 0.181749, Final residual = 6.25548e-09, No Iterations 33
time step continuity errors : sum local = 0.0187418, global = -0.00200469, cumulative = -0.0564267
BiCGStab:  Solving for h, Initial residual = 0.0719645, Final residual = 8.06961e-12, No Iterations 3
ExecutionTime = 0.83 s  ClockTime = 1 s

Flux divergence min = 0 max = 34.4142 average: 0.780503
Mach number min = 0.375818 max = 0.823285
Field U magnitude min = 0 max = 296.156
Field p min = 75117.2 max = 148266
Field rho min = 0.858912 max = 1.65244
Field T min = 294.979 max = 323.256
Time = 12

BiCGStab:  Solving for Ux, Initial residual = 0.0702225, Final residual = 1.45902e-09, No Iterations 2
BiCGStab:  Solving for Uy, Initial residual = 0.0761848, Final residual = 1.01504e-09, No Iterations 2
BiCGStab:  Solving for p, Initial residual = 0.256812, Final residual = 4.81496e-09, No Iterations 33
time step continuity errors : sum local = 0.0186718, global = -0.000130927, cumulative = -0.0565576
BiCGStab:  Solving for p, Initial residual = 0.17495, Final residual = 5.49504e-09, No Iterations 33
time step continuity errors : sum local = 0.0183264, global = -0.00194483, cumulative = -0.0585024
BiCGStab:  Solving for h, Initial residual = 0.0679577, Final residual = 7.82073e-12, No Iterations 3
ExecutionTime = 0.9 s  ClockTime = 1 s

Flux divergence min = 0 max = 31.0529 average: 0.755839
Mach number min = 0.372283 max = 0.831442
Field U magnitude min = 0 max = 298.854
Field p min = 75104 max = 147931
Field rho min = 0.858464 max = 1.64767
Field T min = 294.468 max = 323.053
Time = 13

BiCGStab:  Solving for Ux, Initial residual = 0.0660819, Final residual = 1.37038e-09, No Iterations 2
BiCGStab:  Solving for Uy, Initial residual = 0.0712648, Final residual = 9.21091e-10, No Iterations 2
BiCGStab:  Solving for p, Initial residual = 0.246839, Final residual = 3.4727e-10, No Iterations 34
time step continuity errors : sum local = 0.0182821, global = -0.000139162, cumulative = -0.0586416
BiCGStab:  Solving for p, Initial residual = 0.168545, Final residual = 2.53554e-09, No Iterations 33
time step continuity errors : sum local = 0.0179235, global = -0.00187573, cumulative = -0.0605173
BiCGStab:  Solving for h, Initial residual = 0.0643746, Final residual = 7.36967e-12, No Iterations 3
ExecutionTime = 0.97 s  ClockTime = 1 s

Flux divergence min = 0 max = 27.7371 average: 0.732168
Mach number min = 0.370091 max = 0.840458
Field U magnitude min = 0 max = 301.718
Field p min = 75251.3 max = 147465
Field rho min = 0.857283 max = 1.64172
Field T min = 293.925 max = 322.862
Time = 14

BiCGStab:  Solving for Ux, Initial residual = 0.0625255, Final residual = 1.27961e-09, No Iterations 2
BiCGStab:  Solving for Uy, Initial residual = 0.0669348, Final residual = 8.49656e-10, No Iterations 2
BiCGStab:  Solving for p, Initial residual = 0.238517, Final residual = 7.99409e-09, No Iterations 33
time step continuity errors : sum local = 0.017882, global = -0.000136345, cumulative = -0.0606537
BiCGStab:  Solving for p, Initial residual = 0.163192, Final residual = 2.18625e-10, No Iterations 34
time step continuity errors : sum local = 0.0175251, global = -0.00180134, cumulative = -0.062455
BiCGStab:  Solving for h, Initial residual = 0.061086, Final residual = 9.20548e-09, No Iterations 2
ExecutionTime = 1.04 s  ClockTime = 1 s

Flux divergence min = 0 max = 25.2564 average: 0.709241
Mach number min = 0.368977 max = 0.849617
Field U magnitude min = 0 max = 304.546
Field p min = 75433.1 max = 146865
Field rho min = 0.856194 max = 1.63452
Field T min = 292.715 max = 323.003
Time = 15

BiCGStab:  Solving for Ux, Initial residual = 0.0592603, Final residual = 1.18243e-09, No Iterations 2
BiCGStab:  Solving for Uy, Initial residual = 0.0630354, Final residual = 7.88334e-10, No Iterations 2
BiCGStab:  Solving for p, Initial residual = 0.230976, Final residual = 3.89572e-09, No Iterations 33
time step continuity errors : sum local = 0.0174459, global = -0.000133984, cumulative = -0.062589
BiCGStab:  Solving for p, Initial residual = 0.157982, Final residual = 3.2436e-09, No Iterations 33
time step continuity errors : sum local = 0.0170938, global = -0.00173173, cumulative = -0.0643207
BiCGStab:  Solving for h, Initial residual = 0.058094, Final residual = 8.28294e-09, No Iterations 2
ExecutionTime = 1.1 s  ClockTime = 1 s

Flux divergence min = 0 max = 22.6994 average: 0.686796
Mach number min = 0.369786 max = 0.858831
Field U magnitude min = 0 max = 307.169
Field p min = 75317.1 max = 146173
Field rho min = 0.852255 max = 1.62639
Field T min = 291.288 max = 324.265
Time = 16

BiCGStab:  Solving for Ux, Initial residual = 0.0562851, Final residual = 1.08735e-09, No Iterations 2
BiCGStab:  Solving for Uy, Initial residual = 0.0596321, Final residual = 7.35061e-10, No Iterations 2
BiCGStab:  Solving for p, Initial residual = 0.223537, Final residual = 9.21525e-09, No Iterations 33
time step continuity errors : sum local = 0.016943, global = -0.000129078, cumulative = -0.0644498
BiCGStab:  Solving for p, Initial residual = 0.153108, Final residual = 5.19871e-09, No Iterations 33
time step continuity errors : sum local = 0.0165975, global = -0.00166595, cumulative = -0.0661157
BiCGStab:  Solving for h, Initial residual = 0.055323, Final residual = 7.39638e-09, No Iterations 2
ExecutionTime = 1.17 s  ClockTime = 1 s

Flux divergence min = 0 max = 20.3824 average: 0.664287
Mach number min = 0.371822 max = 0.867537
Field U magnitude min = 0 max = 309.628
Field p min = 75140.3 max = 145451
Field rho min = 0.845907 max = 1.61797
Field T min = 289.87 max = 325.575
Time = 17

BiCGStab:  Solving for Ux, Initial residual = 0.0535633, Final residual = 1.00316e-09, No Iterations 2
BiCGStab:  Solving for Uy, Initial residual = 0.0569729, Final residual = 6.92054e-10, No Iterations 2
BiCGStab:  Solving for p, Initial residual = 0.216189, Final residual = 2.78839e-10, No Iterations 34
time step continuity errors : sum local = 0.0163568, global = -0.000117412, cumulative = -0.0662332
BiCGStab:  Solving for p, Initial residual = 0.148194, Final residual = 8.2918e-09, No Iterations 32
time step continuity errors : sum local = 0.0160124, global = -0.00160048, cumulative = -0.0678336
BiCGStab:  Solving for h, Initial residual = 0.0526977, Final residual = 6.58821e-09, No Iterations 2
ExecutionTime = 1.24 s  ClockTime = 1 s

Flux divergence min = 0 max = 18.8593 average: 0.641364
Mach number min = 0.373929 max = 0.876336
Field U magnitude min = 0 max = 312.037
Field p min = 75007.9 max = 144759
Field rho min = 0.839532 max = 1.6099
Field T min = 288.476 max = 326.947
Time = 18

BiCGStab:  Solving for Ux, Initial residual = 0.0509791, Final residual = 9.19802e-10, No Iterations 2
BiCGStab:  Solving for Uy, Initial residual = 0.0547735, Final residual = 6.48551e-10, No Iterations 2
BiCGStab:  Solving for p, Initial residual = 0.209116, Final residual = 1.44155e-09, No Iterations 34
time step continuity errors : sum local = 0.0156741, global = -0.000106269, cumulative = -0.0679399
BiCGStab:  Solving for p, Initial residual = 0.143526, Final residual = 6.53965e-09, No Iterations 32
time step continuity errors : sum local = 0.0153297, global = -0.00153894, cumulative = -0.0694788
BiCGStab:  Solving for h, Initial residual = 0.0502207, Final residual = 5.85513e-09, No Iterations 2
ExecutionTime = 1.3 s  ClockTime = 1 s

Flux divergence min = 0 max = 17.1958 average: 0.61837
Mach number min = 0.375523 max = 0.88481
Field U magnitude min = 0 max = 314.475
Field p min = 74848.4 max = 144131
Field rho min = 0.832158 max = 1.60259
Field T min = 287.108 max = 328.399
Time = 19

BiCGStab:  Solving for Ux, Initial residual = 0.0484994, Final residual = 8.4724e-10, No Iterations 2
BiCGStab:  Solving for Uy, Initial residual = 0.0528258, Final residual = 6.05319e-10, No Iterations 2
BiCGStab:  Solving for p, Initial residual = 0.202972, Final residual = 4.12551e-09, No Iterations 33
time step continuity errors : sum local = 0.0149454, global = -9.52738e-05, cumulative = -0.0695741
BiCGStab:  Solving for p, Initial residual = 0.139525, Final residual = 4.33385e-09, No Iterations 32
time step continuity errors : sum local = 0.0146083, global = -0.00148196, cumulative = -0.0710561
BiCGStab:  Solving for h, Initial residual = 0.0478559, Final residual = 5.21402e-09, No Iterations 2
ExecutionTime = 1.36 s  ClockTime = 1 s

Flux divergence min = 0 max = 15.9468 average: 0.595213
Mach number min = 0.376413 max = 0.893674
Field U magnitude min = 0 max = 316.953
Field p min = 74596.9 max = 143577
Field rho min = 0.824106 max = 1.59615
Field T min = 285.769 max = 329.945
Time = 20

BiCGStab:  Solving for Ux, Initial residual = 0.0461941, Final residual = 7.74179e-10, No Iterations 2
BiCGStab:  Solving for Uy, Initial residual = 0.0510052, Final residual = 5.63126e-10, No Iterations 2
BiCGStab:  Solving for p, Initial residual = 0.197344, Final residual = 3.39053e-09, No Iterations 33
time step continuity errors : sum local = 0.0142692, global = -7.97732e-05, cumulative = -0.0711358
BiCGStab:  Solving for p, Initial residual = 0.135794, Final residual = 2.5063e-09, No Iterations 33
time step continuity errors : sum local = 0.0139446, global = -0.00142311, cumulative = -0.072559
BiCGStab:  Solving for h, Initial residual = 0.0455442, Final residual = 4.63785e-09, No Iterations 2
ExecutionTime = 1.43 s  ClockTime = 1 s

Flux divergence min = 0 max = 14.627 average: 0.573323
Mach number min = 0.376654 max = 0.902492
Field U magnitude min = 0 max = 319.453
Field p min = 74417 max = 143087
Field rho min = 0.816708 max = 1.59046
Field T min = 284.463 max = 331.603
Time = 21

BiCGStab:  Solving for Ux, Initial residual = 0.0439807, Final residual = 7.05419e-10, No Iterations 2
BiCGStab:  Solving for Uy, Initial residual = 0.049055, Final residual = 5.24625e-10, No Iterations 2
BiCGStab:  Solving for p, Initial residual = 0.192897, Final residual = 1.19634e-10, No Iterations 34
time step continuity errors : sum local = 0.0136851, global = -6.57791e-05, cumulative = -0.0726247
BiCGStab:  Solving for p, Initial residual = 0.132886, Final residual = 7.9622e-10, No Iterations 33
time step continuity errors : sum local = 0.0133808, global = -0.0013679, cumulative = -0.0739926
BiCGStab:  Solving for h, Initial residual = 0.0434794, Final residual = 4.1267e-09, No Iterations 2
ExecutionTime = 1.5 s  ClockTime = 2 s

Flux divergence min = 0 max = 13.6471 average: 0.553442
Mach number min = 0.376436 max = 0.911307
Field U magnitude min = 0 max = 321.936
Field p min = 74353.1 max = 142644
Field rho min = 0.810638 max = 1.58531
Field T min = 283.196 max = 333.389
Time = 22

BiCGStab:  Solving for Ux, Initial residual = 0.0420543, Final residual = 6.43222e-10, No Iterations 2
BiCGStab:  Solving for Uy, Initial residual = 0.0469826, Final residual = 4.83318e-10, No Iterations 2
BiCGStab:  Solving for p, Initial residual = 0.188696, Final residual = 3.56879e-09, No Iterations 33
time step continuity errors : sum local = 0.0132219, global = -4.86669e-05, cumulative = -0.0740413
BiCGStab:  Solving for p, Initial residual = 0.130225, Final residual = 1.83702e-10, No Iterations 34
time step continuity errors : sum local = 0.0129422, global = -0.00131328, cumulative = -0.0753546
BiCGStab:  Solving for h, Initial residual = 0.0415496, Final residual = 3.66364e-09, No Iterations 2
ExecutionTime = 1.57 s  ClockTime = 2 s

Flux divergence min = 0 max = 12.539 average: 0.534266
Mach number min = 0.37599 max = 0.920371
Field U magnitude min = 0 max = 324.355
Field p min = 74335.4 max = 142230
Field rho min = 0.805362 max = 1.5805
Field T min = 281.969 max = 335.31
Time = 23

BiCGStab:  Solving for Ux, Initial residual = 0.0402699, Final residual = 5.82714e-10, No Iterations 2
BiCGStab:  Solving for Uy, Initial residual = 0.0444615, Final residual = 4.41196e-10, No Iterations 2
BiCGStab:  Solving for p, Initial residual = 0.184315, Final residual = 4.22977e-10, No Iterations 34
time step continuity errors : sum local = 0.0128895, global = -3.57336e-05, cumulative = -0.0753903
BiCGStab:  Solving for p, Initial residual = 0.127148, Final residual = 2.74799e-09, No Iterations 34
time step continuity errors : sum local = 0.0126347, global = -0.00126289, cumulative = -0.0766532
BiCGStab:  Solving for h, Initial residual = 0.0398348, Final residual = 3.25318e-09, No Iterations 2
ExecutionTime = 1.64 s  ClockTime = 2 s

Flux divergence min = 0 max = 11.7714 average: 0.515788
Mach number min = 0.375529 max = 0.92916
Field U magnitude min = 0 max = 326.701
Field p min = 74084 max = 141830
Field rho min = 0.799034 max = 1.57587
Field T min = 280.712 max = 337.357
Time = 24

BiCGStab:  Solving for Ux, Initial residual = 0.0387459, Final residual = 5.26471e-10, No Iterations 2
BiCGStab:  Solving for Uy, Initial residual = 0.0416038, Final residual = 4.0256e-10, No Iterations 2
BiCGStab:  Solving for p, Initial residual = 0.179345, Final residual = 8.01971e-10, No Iterations 34
time step continuity errors : sum local = 0.0126302, global = -2.59713e-05, cumulative = -0.0766792
BiCGStab:  Solving for p, Initial residual = 0.123819, Final residual = 9.59856e-11, No Iterations 35
time step continuity errors : sum local = 0.0123955, global = -0.00121991, cumulative = -0.0778991
BiCGStab:  Solving for h, Initial residual = 0.0382935, Final residual = 2.90564e-09, No Iterations 2
ExecutionTime = 1.7 s  ClockTime = 2 s

Flux divergence min = 0 max = 10.8121 average: 0.49706
Mach number min = 0.37521 max = 0.938002
Field U magnitude min = 0 max = 328.97
Field p min = 73851.8 max = 141439
Field rho min = 0.793649 max = 1.57132
Field T min = 279.475 max = 339.622
Time = 25

BiCGStab:  Solving for Ux, Initial residual = 0.03734, Final residual = 4.76659e-10, No Iterations 2
BiCGStab:  Solving for Uy, Initial residual = 0.0387146, Final residual = 3.70925e-10, No Iterations 2
BiCGStab:  Solving for p, Initial residual = 0.174199, Final residual = 1.14001e-09, No Iterations 34
time step continuity errors : sum local = 0.0123987, global = -2.16321e-05, cumulative = -0.0779207
BiCGStab:  Solving for p, Initial residual = 0.120366, Final residual = 8.49047e-11, No Iterations 34
time step continuity errors : sum local = 0.0121785, global = -0.00118314, cumulative = -0.0791039
BiCGStab:  Solving for h, Initial residual = 0.0368717, Final residual = 2.59514e-09, No Iterations 2
ExecutionTime = 1.78 s  ClockTime = 2 s

Flux divergence min = 0 max = 10.2153 average: 0.478255
Mach number min = 0.375129 max = 0.946766
Field U magnitude min = 0 max = 331.144
Field p min = 73681.6 max = 141049
Field rho min = 0.789769 max = 1.5668
Field T min = 278.28 max = 341.964
Time = 26

BiCGStab:  Solving for Ux, Initial residual = 0.0360504, Final residual = 4.27625e-10, No Iterations 2
BiCGStab:  Solving for Uy, Initial residual = 0.0364477, Final residual = 3.41649e-10, No Iterations 2
BiCGStab:  Solving for p, Initial residual = 0.168687, Final residual = 9.7636e-09, No Iterations 33
time step continuity errors : sum local = 0.0121279, global = -2.51046e-05, cumulative = -0.079129
BiCGStab:  Solving for p, Initial residual = 0.116509, Final residual = 5.14298e-09, No Iterations 33
time step continuity errors : sum local = 0.0119199, global = -0.0011568, cumulative = -0.0802858
BiCGStab:  Solving for h, Initial residual = 0.035483, Final residual = 2.31664e-09, No Iterations 2
ExecutionTime = 1.84 s  ClockTime = 2 s

Flux divergence min = 0 max = 9.46197 average: 0.460114
Mach number min = 0.375336 max = 0.955225
Field U magnitude min = 0 max = 333.296
Field p min = 73566.3 max = 140655
Field rho min = 0.78745 max = 1.56222
Field T min = 277.132 max = 344.328
Time = 27

BiCGStab:  Solving for Ux, Initial residual = 0.0349219, Final residual = 3.82716e-10, No Iterations 2
BiCGStab:  Solving for Uy, Initial residual = 0.0348232, Final residual = 3.10757e-10, No Iterations 2
BiCGStab:  Solving for p, Initial residual = 0.163451, Final residual = 7.53822e-09, No Iterations 33
time step continuity errors : sum local = 0.0117884, global = -3.33093e-05, cumulative = -0.0803191
BiCGStab:  Solving for p, Initial residual = 0.11301, Final residual = 5.69804e-09, No Iterations 33
time step continuity errors : sum local = 0.0115981, global = -0.00113407, cumulative = -0.0814532
BiCGStab:  Solving for h, Initial residual = 0.0341229, Final residual = 2.06255e-09, No Iterations 2
ExecutionTime = 1.91 s  ClockTime = 2 s

Flux divergence min = 0 max = 8.90326 average: 0.441441
Mach number min = 0.375818 max = 0.963992
Field U magnitude min = 0 max = 335.258
Field p min = 73404.7 max = 140263
Field rho min = 0.786115 max = 1.55768
Field T min = 276.035 max = 346.66
Time = 28

BiCGStab:  Solving for Ux, Initial residual = 0.0338113, Final residual = 3.42162e-10, No Iterations 2
BiCGStab:  Solving for Uy, Initial residual = 0.0337233, Final residual = 2.78313e-10, No Iterations 2
BiCGStab:  Solving for p, Initial residual = 0.15926, Final residual = 1.77789e-09, No Iterations 34
time step continuity errors : sum local = 0.0114078, global = -3.92292e-05, cumulative = -0.0814924
BiCGStab:  Solving for p, Initial residual = 0.110149, Final residual = 1.28212e-09, No Iterations 34
time step continuity errors : sum local = 0.0112461, global = -0.0011113, cumulative = -0.0826037
BiCGStab:  Solving for h, Initial residual = 0.0327605, Final residual = 1.82549e-09, No Iterations 2
ExecutionTime = 1.97 s  ClockTime = 2 s

Flux divergence min = 0 max = 8.31358 average: 0.421737
Mach number min = 0.376523 max = 0.972437
Field U magnitude min = 0 max = 337.115
Field p min = 73078.5 max = 139878
Field rho min = 0.785618 max = 1.55323
Field T min = 274.972 max = 348.905
Time = 29

BiCGStab:  Solving for Ux, Initial residual = 0.0327738, Final residual = 3.05876e-10, No Iterations 2
BiCGStab:  Solving for Uy, Initial residual = 0.0330068, Final residual = 2.51176e-10, No Iterations 2
BiCGStab:  Solving for p, Initial residual = 0.15584, Final residual = 2.31945e-09, No Iterations 34
time step continuity errors : sum local = 0.0110671, global = -4.53948e-05, cumulative = -0.0826491
BiCGStab:  Solving for p, Initial residual = 0.107792, Final residual = 1.55136e-09, No Iterations 34
time step continuity errors : sum local = 0.0109361, global = -0.00108927, cumulative = -0.0837384
BiCGStab:  Solving for h, Initial residual = 0.0313898, Final residual = 1.61511e-09, No Iterations 2
ExecutionTime = 2.03 s  ClockTime = 2 s

Flux divergence min = 0 max = 7.78189 average: 0.404655
Mach number min = 0.377384 max = 0.980784
Field U magnitude min = 0 max = 338.706
Field p min = 72786.8 max = 139505
Field rho min = 0.786863 max = 1.54891
Field T min = 273.856 max = 351.005
Time = 30

BiCGStab:  Solving for Ux, Initial residual = 0.0317794, Final residual = 2.7437e-10, No Iterations 2
BiCGStab:  Solving for Uy, Initial residual = 0.0324967, Final residual = 2.28825e-10, No Iterations 2
BiCGStab:  Solving for p, Initial residual = 0.153103, Final residual = 3.03057e-09, No Iterations 34
time step continuity errors : sum local = 0.0108114, global = -4.75092e-05, cumulative = -0.0837859
BiCGStab:  Solving for p, Initial residual = 0.106008, Final residual = 2.32488e-09, No Iterations 34
time step continuity errors : sum local = 0.0107169, global = -0.00106467, cumulative = -0.0848505
BiCGStab:  Solving for h, Initial residual = 0.0300299, Final residual = 1.43175e-09, No Iterations 2
ExecutionTime = 2.1 s  ClockTime = 2 s

Flux divergence min = 0 max = 7.3129 average: 0.393678
Mach number min = 0.378334 max = 0.989095
Field U magnitude min = 0 max = 340.243
Field p min = 72522 max = 139144
Field rho min = 0.789908 max = 1.54475
Field T min = 272.797 max = 352.948
Time = 31

BiCGStab:  Solving for Ux, Initial residual = 0.0308507, Final residual = 2.46504e-10, No Iterations 2
BiCGStab:  Solving for Uy, Initial residual = 0.0320323, Final residual = 2.11525e-10, No Iterations 2
BiCGStab:  Solving for p, Initial residual = 0.150431, Final residual = 8.478e-10, No Iterations 35
time step continuity errors : sum local = 0.0106374, global = -4.86782e-05, cumulative = -0.0848992
BiCGStab:  Solving for p, Initial residual = 0.104143, Final residual = 4.70848e-09, No Iterations 34
time step continuity errors : sum local = 0.0105591, global = -0.0010407, cumulative = -0.0859399
BiCGStab:  Solving for h, Initial residual = 0.0287292, Final residual = 1.28609e-09, No Iterations 2
ExecutionTime = 2.16 s  ClockTime = 2 s

Flux divergence min = 0 max = 9.77916 average: 0.386768
Mach number min = 0.37932 max = 0.996923
Field U magnitude min = 0 max = 341.543
Field p min = 72272.7 max = 138795
Field rho min = 0.794594 max = 1.54075
Field T min = 271.792 max = 354.804
Time = 32

BiCGStab:  Solving for Ux, Initial residual = 0.0300276, Final residual = 2.22302e-10, No Iterations 2
BiCGStab:  Solving for Uy, Initial residual = 0.0314688, Final residual = 1.98096e-10, No Iterations 2
BiCGStab:  Solving for p, Initial residual = 0.147409, Final residual = 6.87763e-10, No Iterations 35
time step continuity errors : sum local = 0.0105138, global = -4.74568e-05, cumulative = -0.0859874
BiCGStab:  Solving for p, Initial residual = 0.102122, Final residual = 4.28792e-10, No Iterations 35
time step continuity errors : sum local = 0.010448, global = -0.00101579, cumulative = -0.0870032
BiCGStab:  Solving for h, Initial residual = 0.0275105, Final residual = 1.17272e-09, No Iterations 2
ExecutionTime = 2.22 s  ClockTime = 2 s

Flux divergence min = 0 max = 11.7376 average: 0.381492
Mach number min = 0.380299 max = 1.00485
Field U magnitude min = 0 max = 342.592
Field p min = 72042 max = 138459
Field rho min = 0.800842 max = 1.5369
Field T min = 270.843 max = 356.404
Time = 33

BiCGStab:  Solving for Ux, Initial residual = 0.0292827, Final residual = 2.02246e-10, No Iterations 2
BiCGStab:  Solving for Uy, Initial residual = 0.0307535, Final residual = 1.87151e-10, No Iterations 2
BiCGStab:  Solving for p, Initial residual = 0.144, Final residual = 7.48528e-10, No Iterations 35
time step continuity errors : sum local = 0.0104136, global = -4.40046e-05, cumulative = -0.0870472
BiCGStab:  Solving for p, Initial residual = 0.0997885, Final residual = 2.10085e-10, No Iterations 35
time step continuity errors : sum local = 0.0103555, global = -0.000990651, cumulative = -0.0880378
BiCGStab:  Solving for h, Initial residual = 0.0264003, Final residual = 1.08726e-09, No Iterations 2
ExecutionTime = 2.3 s  ClockTime = 2 s

Flux divergence min = 0 max = 11.6911 average: 0.376321
Mach number min = 0.381245 max = 1.01207
Field U magnitude min = 0 max = 343.426
Field p min = 71644.1 max = 138135
Field rho min = 0.807657 max = 1.53321
Field T min = 269.877 max = 357.695
Time = 34

BiCGStab:  Solving for Ux, Initial residual = 0.0286504, Final residual = 1.85657e-10, No Iterations 2
BiCGStab:  Solving for Uy, Initial residual = 0.0300515, Final residual = 1.76565e-10, No Iterations 2
BiCGStab:  Solving for p, Initial residual = 0.140296, Final residual = 1.34352e-09, No Iterations 35
time step continuity errors : sum local = 0.0103385, global = -4.3478e-05, cumulative = -0.0880813
BiCGStab:  Solving for p, Initial residual = 0.0972084, Final residual = 9.18347e-10, No Iterations 35
time step continuity errors : sum local = 0.0102757, global = -0.000969241, cumulative = -0.0890505
BiCGStab:  Solving for h, Initial residual = 0.0253472, Final residual = 1.02417e-09, No Iterations 2
ExecutionTime = 2.36 s  ClockTime = 2 s

Flux divergence min = 0 max = 9.94994 average: 0.369955
Mach number min = 0.382141 max = 1.01927
Field U magnitude min = 0 max = 344.282
Field p min = 71230.7 max = 137822
Field rho min = 0.81429 max = 1.52967
Field T min = 268.909 max = 358.63
Time = 35

BiCGStab:  Solving for Ux, Initial residual = 0.0281089, Final residual = 1.71383e-10, No Iterations 2
BiCGStab:  Solving for Uy, Initial residual = 0.0293775, Final residual = 1.70119e-10, No Iterations 2
BiCGStab:  Solving for p, Initial residual = 0.13654, Final residual = 1.41792e-09, No Iterations 35
time step continuity errors : sum local = 0.0102768, global = -3.8851e-05, cumulative = -0.0890894
BiCGStab:  Solving for p, Initial residual = 0.0945529, Final residual = 1.36371e-09, No Iterations 35
time step continuity errors : sum local = 0.0102123, global = -0.000943881, cumulative = -0.0900333
BiCGStab:  Solving for h, Initial residual = 0.0243816, Final residual = 9.76219e-10, No Iterations 2
ExecutionTime = 2.44 s  ClockTime = 2 s

Flux divergence min = 0 max = 8.9885 average: 0.361901
Mach number min = 0.382982 max = 1.02581
Field U magnitude min = 0 max = 344.969
Field p min = 70849.7 max = 137522
Field rho min = 0.821737 max = 1.52626
Field T min = 268.003 max = 359.172
Time = 36

BiCGStab:  Solving for Ux, Initial residual = 0.0276222, Final residual = 1.59497e-10, No Iterations 2
BiCGStab:  Solving for Uy, Initial residual = 0.02871, Final residual = 1.6326e-10, No Iterations 2
BiCGStab:  Solving for p, Initial residual = 0.132694, Final residual = 4.1148e-09, No Iterations 35
time step continuity errors : sum local = 0.010212, global = -3.04807e-05, cumulative = -0.0900637
BiCGStab:  Solving for p, Initial residual = 0.091939, Final residual = 3.44719e-09, No Iterations 35
time step continuity errors : sum local = 0.0101448, global = -0.000915857, cumulative = -0.0909796
BiCGStab:  Solving for h, Initial residual = 0.0235855, Final residual = 9.46559e-10, No Iterations 2
ExecutionTime = 2.51 s  ClockTime = 3 s

Flux divergence min = 0 max = 9.34073 average: 0.352257
Mach number min = 0.383768 max = 1.0319
Field U magnitude min = 0 max = 345.496
Field p min = 70511.9 max = 137232
Field rho min = 0.830226 max = 1.5246
Field T min = 267.161 max = 359.292
Time = 37

BiCGStab:  Solving for Ux, Initial residual = 0.02721, Final residual = 1.5377e-10, No Iterations 2
BiCGStab:  Solving for Uy, Initial residual = 0.0280942, Final residual = 1.58078e-10, No Iterations 2
BiCGStab:  Solving for p, Initial residual = 0.129239, Final residual = 5.68975e-09, No Iterations 35
time step continuity errors : sum local = 0.0101378, global = -2.10069e-05, cumulative = -0.0910006
BiCGStab:  Solving for p, Initial residual = 0.0896659, Final residual = 1.337e-09, No Iterations 36
time step continuity errors : sum local = 0.0100658, global = -0.000886801, cumulative = -0.0918874
BiCGStab:  Solving for h, Initial residual = 0.0228464, Final residual = 9.24764e-10, No Iterations 2
ExecutionTime = 2.58 s  ClockTime = 3 s

Flux divergence min = 0 max = 9.63343 average: 0.341876
Mach number min = 0.384507 max = 1.03774
Field U magnitude min = 0 max = 345.884
Field p min = 70207.2 max = 136952
Field rho min = 0.839389 max = 1.52688
Field T min = 266.327 max = 358.975
Time = 38

BiCGStab:  Solving for Ux, Initial residual = 0.0267647, Final residual = 1.48879e-10, No Iterations 2
BiCGStab:  Solving for Uy, Initial residual = 0.0276582, Final residual = 1.52165e-10, No Iterations 2
BiCGStab:  Solving for p, Initial residual = 0.126536, Final residual = 3.43533e-09, No Iterations 34
time step continuity errors : sum local = 0.0100695, global = -1.79701e-05, cumulative = -0.0919054
BiCGStab:  Solving for p, Initial residual = 0.0878993, Final residual = 4.18439e-09, No Iterations 34
time step continuity errors : sum local = 0.00998432, global = -0.000864743, cumulative = -0.0927701
BiCGStab:  Solving for h, Initial residual = 0.0221386, Final residual = 9.03029e-10, No Iterations 2
ExecutionTime = 2.65 s  ClockTime = 3 s

Flux divergence min = 0 max = 9.94555 average: 0.33264
Mach number min = 0.385208 max = 1.0427
Field U magnitude min = 0 max = 346.158
Field p min = 69927.6 max = 136680
Field rho min = 0.848855 max = 1.5287
Field T min = 265.489 max = 358.217
Time = 39

BiCGStab:  Solving for Ux, Initial residual = 0.0263528, Final residual = 1.44494e-10, No Iterations 2
BiCGStab:  Solving for Uy, Initial residual = 0.0273507, Final residual = 1.44949e-10, No Iterations 2
BiCGStab:  Solving for p, Initial residual = 0.124424, Final residual = 9.71042e-10, No Iterations 35
time step continuity errors : sum local = 0.0100206, global = -1.5704e-05, cumulative = -0.0927858
BiCGStab:  Solving for p, Initial residual = 0.0863881, Final residual = 1.70995e-09, No Iterations 35
time step continuity errors : sum local = 0.00992782, global = -0.000845542, cumulative = -0.0936314
BiCGStab:  Solving for h, Initial residual = 0.0215047, Final residual = 8.79847e-10, No Iterations 2
ExecutionTime = 2.72 s  ClockTime = 3 s

Flux divergence min = 0 max = 10.2289 average: 0.324192
Mach number min = 0.38588 max = 1.04751
Field U magnitude min = 0 max = 346.336
Field p min = 69653.3 max = 136417
Field rho min = 0.858263 max = 1.53036
Field T min = 264.743 max = 357.029
Time = 40

BiCGStab:  Solving for Ux, Initial residual = 0.0259651, Final residual = 1.39856e-10, No Iterations 2
BiCGStab:  Solving for Uy, Initial residual = 0.0270919, Final residual = 1.36085e-10, No Iterations 2
BiCGStab:  Solving for p, Initial residual = 0.122422, Final residual = 1.30991e-09, No Iterations 35
time step continuity errors : sum local = 0.0099888, global = -1.70748e-05, cumulative = -0.0936484
BiCGStab:  Solving for p, Initial residual = 0.0850536, Final residual = 4.00979e-10, No Iterations 35
time step continuity errors : sum local = 0.00988961, global = -0.000830269, cumulative = -0.0944787
BiCGStab:  Solving for h, Initial residual = 0.020922, Final residual = 8.51988e-10, No Iterations 2
ExecutionTime = 2.79 s  ClockTime = 3 s

Flux divergence min = 0 max = 10.3689 average: 0.317323
Mach number min = 0.386534 max = 1.05188
Field U magnitude min = 0 max = 346.426
Field p min = 69303.9 max = 136162
Field rho min = 0.867122 max = 1.5319
Field T min = 264.091 max = 355.429
Time = 41

BiCGStab:  Solving for Ux, Initial residual = 0.025581, Final residual = 1.34669e-10, No Iterations 2
BiCGStab:  Solving for Uy, Initial residual = 0.026829, Final residual = 1.28123e-10, No Iterations 2
BiCGStab:  Solving for p, Initial residual = 0.120541, Final residual = 7.33431e-10, No Iterations 35
time step continuity errors : sum local = 0.0099595, global = -1.72493e-05, cumulative = -0.094496
BiCGStab:  Solving for p, Initial residual = 0.0838231, Final residual = 3.15864e-09, No Iterations 35
time step continuity errors : sum local = 0.00985259, global = -0.000814689, cumulative = -0.0953107
BiCGStab:  Solving for h, Initial residual = 0.0204035, Final residual = 8.21541e-10, No Iterations 2
ExecutionTime = 2.86 s  ClockTime = 3 s

Flux divergence min = 0 max = 10.6228 average: 0.311151
Mach number min = 0.387176 max = 1.05528
Field U magnitude min = 0 max = 346.403
Field p min = 69007.5 max = 135912
Field rho min = 0.874263 max = 1.53298
Field T min = 263.391 max = 353.448
Time = 42

BiCGStab:  Solving for Ux, Initial residual = 0.0252341, Final residual = 1.29252e-10, No Iterations 2
BiCGStab:  Solving for Uy, Initial residual = 0.0265379, Final residual = 1.20857e-10, No Iterations 2
BiCGStab:  Solving for p, Initial residual = 0.118998, Final residual = 1.14939e-09, No Iterations 36
time step continuity errors : sum local = 0.00992843, global = -1.44336e-05, cumulative = -0.0953251
BiCGStab:  Solving for p, Initial residual = 0.0827713, Final residual = 1.17546e-09, No Iterations 36
time step continuity errors : sum local = 0.00981234, global = -0.000797419, cumulative = -0.0961225
BiCGStab:  Solving for h, Initial residual = 0.0199424, Final residual = 7.90536e-10, No Iterations 2
ExecutionTime = 2.93 s  ClockTime = 3 s

Flux divergence min = 0 max = 10.6505 average: 0.305403
Mach number min = 0.387813 max = 1.05774
Field U magnitude min = 0 max = 346.276
Field p min = 68760.6 max = 135670
Field rho min = 0.880645 max = 1.53322
Field T min = 262.814 max = 351.125
Time = 43

BiCGStab:  Solving for Ux, Initial residual = 0.0248817, Final residual = 1.24116e-10, No Iterations 2
BiCGStab:  Solving for Uy, Initial residual = 0.0261778, Final residual = 1.14541e-10, No Iterations 2
BiCGStab:  Solving for p, Initial residual = 0.117572, Final residual = 5.94154e-09, No Iterations 36
time step continuity errors : sum local = 0.00989187, global = -1.19855e-05, cumulative = -0.0961345
BiCGStab:  Solving for p, Initial residual = 0.0817858, Final residual = 6.76253e-09, No Iterations 36
time step continuity errors : sum local = 0.00976843, global = -0.000780967, cumulative = -0.0969155
BiCGStab:  Solving for h, Initial residual = 0.0195293, Final residual = 7.59004e-10, No Iterations 2
ExecutionTime = 3 s  ClockTime = 3 s

Flux divergence min = 0 max = 10.8091 average: 0.29991
Mach number min = 0.388447 max = 1.06004
Field U magnitude min = 0 max = 346.173
Field p min = 68553.4 max = 135433
Field rho min = 0.886749 max = 1.53357
Field T min = 262.322 max = 349.014
Time = 44

BiCGStab:  Solving for Ux, Initial residual = 0.0245296, Final residual = 1.19621e-10, No Iterations 2
BiCGStab:  Solving for Uy, Initial residual = 0.0258053, Final residual = 1.08457e-10, No Iterations 2
BiCGStab:  Solving for p, Initial residual = 0.115993, Final residual = 1.40138e-10, No Iterations 39
time step continuity errors : sum local = 0.00984635, global = -1.06383e-05, cumulative = -0.0969261
BiCGStab:  Solving for p, Initial residual = 0.0807178, Final residual = 1.24913e-10, No Iterations 39
time step continuity errors : sum local = 0.00971746, global = -0.00076588, cumulative = -0.097692
BiCGStab:  Solving for h, Initial residual = 0.0191731, Final residual = 7.31678e-10, No Iterations 2
ExecutionTime = 3.08 s  ClockTime = 3 s

Flux divergence min = 0 max = 10.7644 average: 0.294862
Mach number min = 0.389079 max = 1.06144
Field U magnitude min = 0 max = 345.965
Field p min = 68375.7 max = 135202
Field rho min = 0.892268 max = 1.53349
Field T min = 261.834 max = 346.684
Time = 45

BiCGStab:  Solving for Ux, Initial residual = 0.0241739, Final residual = 1.15891e-10, No Iterations 2
BiCGStab:  Solving for Uy, Initial residual = 0.0254532, Final residual = 9.99823e-11, No Iterations 2
BiCGStab:  Solving for p, Initial residual = 0.114477, Final residual = 9.09341e-10, No Iterations 39
time step continuity errors : sum local = 0.00978685, global = -8.97728e-06, cumulative = -0.097701
BiCGStab:  Solving for p, Initial residual = 0.0797049, Final residual = 4.3447e-10, No Iterations 39
time step continuity errors : sum local = 0.0096563, global = -0.00075113, cumulative = -0.0984521
BiCGStab:  Solving for h, Initial residual = 0.0188632, Final residual = 7.09039e-10, No Iterations 2
ExecutionTime = 3.15 s  ClockTime = 3 s

Flux divergence min = 0 max = 10.7402 average: 0.290102
Mach number min = 0.389711 max = 1.06199
Field U magnitude min = 0 max = 345.666
Field p min = 68223.7 max = 134975
Field rho min = 0.897057 max = 1.53261
Field T min = 261.545 max = 344.428
Time = 46

BiCGStab:  Solving for Ux, Initial residual = 0.0238063, Final residual = 1.12708e-10, No Iterations 2
BiCGStab:  Solving for Uy, Initial residual = 0.0251633, Final residual = 8.99926e-11, No Iterations 2
BiCGStab:  Solving for p, Initial residual = 0.113001, Final residual = 1.90719e-09, No Iterations 39
time step continuity errors : sum local = 0.0097055, global = -7.29283e-06, cumulative = -0.0984594
BiCGStab:  Solving for p, Initial residual = 0.0786795, Final residual = 2.40006e-09, No Iterations 40
time step continuity errors : sum local = 0.00957189, global = -0.000736734, cumulative = -0.0991961
BiCGStab:  Solving for h, Initial residual = 0.0185273, Final residual = 6.88e-10, No Iterations 2
ExecutionTime = 3.22 s  ClockTime = 3 s

Flux divergence min = 0 max = 10.6592 average: 0.28541
Mach number min = 0.390341 max = 1.06177
Field U magnitude min = 0 max = 345.291
Field p min = 68094.5 max = 134753
Field rho min = 0.89999 max = 1.53186
Field T min = 261.283 max = 342.037
Time = 47

BiCGStab:  Solving for Ux, Initial residual = 0.0234196, Final residual = 1.09575e-10, No Iterations 2
BiCGStab:  Solving for Uy, Initial residual = 0.0248967, Final residual = 7.9777e-11, No Iterations 2
BiCGStab:  Solving for p, Initial residual = 0.111652, Final residual = 1.07366e-09, No Iterations 40
time step continuity errors : sum local = 0.00960741, global = -4.26869e-06, cumulative = -0.0992004
BiCGStab:  Solving for p, Initial residual = 0.0777552, Final residual = 5.7543e-10, No Iterations 40
time step continuity errors : sum local = 0.00947235, global = -0.000721878, cumulative = -0.0999223
BiCGStab:  Solving for h, Initial residual = 0.0181448, Final residual = 6.67203e-10, No Iterations 2
ExecutionTime = 3.3 s  ClockTime = 3 s

Flux divergence min = 0 max = 10.6362 average: 0.280791
Mach number min = 0.390968 max = 1.06089
Field U magnitude min = 0 max = 344.853
Field p min = 67990.5 max = 134537
Field rho min = 0.898679 max = 1.53039
Field T min = 261.192 max = 341.284
Time = 48

BiCGStab:  Solving for Ux, Initial residual = 0.0230137, Final residual = 1.06715e-10, No Iterations 2
BiCGStab:  Solving for Uy, Initial residual = 0.0246468, Final residual = 7.15676e-11, No Iterations 2
BiCGStab:  Solving for p, Initial residual = 0.110216, Final residual = 7.41744e-09, No Iterations 40
time step continuity errors : sum local = 0.0095095, global = -2.34963e-06, cumulative = -0.0999246
BiCGStab:  Solving for p, Initial residual = 0.0767511, Final residual = 5.32113e-09, No Iterations 40
time step continuity errors : sum local = 0.00937535, global = -0.000708369, cumulative = -0.100633
BiCGStab:  Solving for h, Initial residual = 0.0177071, Final residual = 6.45617e-10, No Iterations 2
ExecutionTime = 3.37 s  ClockTime = 3 s

Flux divergence min = 0 max = 10.6303 average: 0.276384
Mach number min = 0.391592 max = 1.05984
Field U magnitude min = 0 max = 344.364
Field p min = 67906.7 max = 134325
Field rho min = 0.897035 max = 1.52827
Field T min = 261.176 max = 340.741
Time = 49

BiCGStab:  Solving for Ux, Initial residual = 0.0226316, Final residual = 1.04037e-10, No Iterations 2
BiCGStab:  Solving for Uy, Initial residual = 0.0244192, Final residual = 6.64549e-11, No Iterations 2
BiCGStab:  Solving for p, Initial residual = 0.108791, Final residual = 9.49507e-09, No Iterations 41
time step continuity errors : sum local = 0.0094213, global = 1.32377e-06, cumulative = -0.100632
BiCGStab:  Solving for p, Initial residual = 0.0757751, Final residual = 2.9949e-09, No Iterations 41
time step continuity errors : sum local = 0.00929057, global = -0.000694397, cumulative = -0.101326
BiCGStab:  Solving for h, Initial residual = 0.0172367, Final residual = 6.24513e-10, No Iterations 2
ExecutionTime = 3.45 s  ClockTime = 3 s

Flux divergence min = 0 max = 10.1142 average: 0.272353
Mach number min = 0.392211 max = 1.05834
Field U magnitude min = 0 max = 343.832
Field p min = 67830.4 max = 134118
Field rho min = 0.895581 max = 1.52669
Field T min = 261.247 max = 340.281
Time = 50

BiCGStab:  Solving for Ux, Initial residual = 0.0222845, Final residual = 1.01598e-10, No Iterations 2
BiCGStab:  Solving for Uy, Initial residual = 0.0242411, Final residual = 6.4436e-11, No Iterations 2
BiCGStab:  Solving for p, Initial residual = 0.107224, Final residual = 7.1532e-10, No Iterations 43
time step continuity errors : sum local = 0.00934046, global = 5.56366e-06, cumulative = -0.10132
BiCGStab:  Solving for p, Initial residual = 0.0746985, Final residual = 6.74085e-10, No Iterations 43
time step continuity errors : sum local = 0.00920378, global = -0.000679544, cumulative = -0.102
BiCGStab:  Solving for h, Initial residual = 0.0167628, Final residual = 6.04879e-10, No Iterations 2
ExecutionTime = 3.62 s  ClockTime = 4 s

Flux divergence min = 0 max = 9.72428 average: 0.26867
Writing divFlux field
Mach number min = 0.392825 max = 1.05615
Writing Mach number field
Field U magnitude min = 0 max = 343.205
Field p min = 67692 max = 133915
Field rho min = 0.894287 max = 1.52399
Field T min = 261.498 max = 339.889
Time = 51

BiCGStab:  Solving for Ux, Initial residual = 0.0219451, Final residual = 9.91736e-11, No Iterations 2
BiCGStab:  Solving for Uy, Initial residual = 0.0241525, Final residual = 6.44853e-11, No Iterations 2
BiCGStab:  Solving for p, Initial residual = 0.105639, Final residual = 6.04357e-09, No Iterations 42
time step continuity errors : sum local = 0.00926304, global = 1.17451e-05, cumulative = -0.101988
BiCGStab:  Solving for p, Initial residual = 0.0736216, Final residual = 4.53558e-09, No Iterations 42
time step continuity errors : sum local = 0.00911768, global = -0.000664026, cumulative = -0.102652
BiCGStab:  Solving for h, Initial residual = 0.0162687, Final residual = 5.8465e-10, No Iterations 2
ExecutionTime = 3.71 s  ClockTime = 4 s

Flux divergence min = 0 max = 9.33378 average: 0.265334
Mach number min = 0.393433 max = 1.05332
Field U magnitude min = 0 max = 342.482
Field p min = 67562.8 max = 133716
Field rho min = 0.893128 max = 1.5208
Field T min = 261.899 max = 339.554
Time = 52

BiCGStab:  Solving for Ux, Initial residual = 0.0216063, Final residual = 9.70385e-11, No Iterations 2
BiCGStab:  Solving for Uy, Initial residual = 0.0241776, Final residual = 6.65621e-11, No Iterations 2
BiCGStab:  Solving for p, Initial residual = 0.104306, Final residual = 2.26564e-09, No Iterations 43
time step continuity errors : sum local = 0.0091613, global = 1.83843e-05, cumulative = -0.102634
BiCGStab:  Solving for p, Initial residual = 0.0727354, Final residual = 1.27064e-09, No Iterations 43
time step continuity errors : sum local = 0.00901347, global = -0.000648451, cumulative = -0.103282
BiCGStab:  Solving for h, Initial residual = 0.0157673, Final residual = 5.63116e-10, No Iterations 2
ExecutionTime = 3.78 s  ClockTime = 4 s

Flux divergence min = 0 max = 9.05385 average: 0.262144
Mach number min = 0.394033 max = 1.04985
Field U magnitude min = 0 max = 341.648
Field p min = 67457.6 max = 133520
Field rho min = 0.892096 max = 1.51851
Field T min = 262.425 max = 339.291
Time = 53

BiCGStab:  Solving for Ux, Initial residual = 0.0212785, Final residual = 9.50074e-11, No Iterations 2
BiCGStab:  Solving for Uy, Initial residual = 0.02429, Final residual = 7.03052e-11, No Iterations 2
BiCGStab:  Solving for p, Initial residual = 0.103173, Final residual = 6.18744e-09, No Iterations 43
time step continuity errors : sum local = 0.00903352, global = 2.6014e-05, cumulative = -0.103256
BiCGStab:  Solving for p, Initial residual = 0.0720015, Final residual = 8.29705e-09, No Iterations 43
time step continuity errors : sum local = 0.00888695, global = -0.000632422, cumulative = -0.103889
BiCGStab:  Solving for h, Initial residual = 0.015245, Final residual = 5.39302e-10, No Iterations 2
ExecutionTime = 3.85 s  ClockTime = 4 s

Flux divergence min = 0 max = 8.73455 average: 0.259124
Mach number min = 0.394627 max = 1.04655
Field U magnitude min = 0 max = 340.688
Field p min = 67368.2 max = 133328
Field rho min = 0.890167 max = 1.51564
Field T min = 263.054 max = 339.077
Time = 54

BiCGStab:  Solving for Ux, Initial residual = 0.0209499, Final residual = 9.30253e-11, No Iterations 2
BiCGStab:  Solving for Uy, Initial residual = 0.0244918, Final residual = 7.50406e-11, No Iterations 2
BiCGStab:  Solving for p, Initial residual = 0.10238, Final residual = 4.83356e-09, No Iterations 43
time step continuity errors : sum local = 0.00890033, global = 3.79602e-05, cumulative = -0.103851
BiCGStab:  Solving for p, Initial residual = 0.071489, Final residual = 7.96927e-09, No Iterations 43
time step continuity errors : sum local = 0.00875724, global = -0.000612494, cumulative = -0.104463
BiCGStab:  Solving for h, Initial residual = 0.0147122, Final residual = 5.13816e-10, No Iterations 2
ExecutionTime = 3.92 s  ClockTime = 4 s

Flux divergence min = 0 max = 8.37467 average: 0.256541
Mach number min = 0.395212 max = 1.04328
Field U magnitude min = 0 max = 340.047
Field p min = 67290.4 max = 133139
Field rho min = 0.886735 max = 1.5124
Field T min = 263.767 max = 338.903
Time = 55

BiCGStab:  Solving for Ux, Initial residual = 0.0206091, Final residual = 9.12033e-11, No Iterations 2
BiCGStab:  Solving for Uy, Initial residual = 0.0246863, Final residual = 7.98894e-11, No Iterations 2
BiCGStab:  Solving for p, Initial residual = 0.101704, Final residual = 1.57574e-10, No Iterations 44
time step continuity errors : sum local = 0.00877352, global = 5.45629e-05, cumulative = -0.104409
BiCGStab:  Solving for p, Initial residual = 0.071005, Final residual = 8.31082e-11, No Iterations 44
time step continuity errors : sum local = 0.00863116, global = -0.000588275, cumulative = -0.104997
BiCGStab:  Solving for h, Initial residual = 0.0142, Final residual = 4.85822e-10, No Iterations 2
ExecutionTime = 3.99 s  ClockTime = 4 s

Flux divergence min = 0 max = 8.8243 average: 0.254374
Mach number min = 0.39579 max = 1.03991
Field U magnitude min = 0 max = 339.451
Field p min = 67222.6 max = 132952
Field rho min = 0.883233 max = 1.50894
Field T min = 264.546 max = 338.768
Time = 56

BiCGStab:  Solving for Ux, Initial residual = 0.0202737, Final residual = 8.96499e-11, No Iterations 2
BiCGStab:  Solving for Uy, Initial residual = 0.0248394, Final residual = 8.45297e-11, No Iterations 2
BiCGStab:  Solving for p, Initial residual = 0.10102, Final residual = 1.59283e-10, No Iterations 44
time step continuity errors : sum local = 0.00866225, global = 7.62067e-05, cumulative = -0.104921
BiCGStab:  Solving for p, Initial residual = 0.0705477, Final residual = 2.08448e-10, No Iterations 44
time step continuity errors : sum local = 0.00852049, global = -0.00056016, cumulative = -0.105481
BiCGStab:  Solving for h, Initial residual = 0.0137638, Final residual = 4.56576e-10, No Iterations 2
ExecutionTime = 4.06 s  ClockTime = 4 s

Flux divergence min = 0 max = 10.0768 average: 0.252589
Mach number min = 0.396361 max = 1.03654
Field U magnitude min = 0 max = 338.88
Field p min = 67172.2 max = 132768
Field rho min = 0.879811 max = 1.50535
Field T min = 265.376 max = 338.668
Time = 57

BiCGStab:  Solving for Ux, Initial residual = 0.0199455, Final residual = 8.95699e-11, No Iterations 2
BiCGStab:  Solving for Uy, Initial residual = 0.0249167, Final residual = 8.92767e-11, No Iterations 2
BiCGStab:  Solving for p, Initial residual = 0.100412, Final residual = 3.92587e-09, No Iterations 44
time step continuity errors : sum local = 0.00856391, global = 0.000100901, cumulative = -0.10538
BiCGStab:  Solving for p, Initial residual = 0.0701459, Final residual = 3.05228e-09, No Iterations 44
time step continuity errors : sum local = 0.00842577, global = -0.000529503, cumulative = -0.10591
BiCGStab:  Solving for h, Initial residual = 0.0133748, Final residual = 4.27113e-10, No Iterations 2
ExecutionTime = 4.14 s  ClockTime = 4 s

Flux divergence min = 0 max = 11.7521 average: 0.251073
Mach number min = 0.396924 max = 1.03321
Field U magnitude min = 0 max = 338.343
Field p min = 67136.6 max = 132586
Field rho min = 0.876479 max = 1.50226
Field T min = 266.244 max = 338.597
Time = 58

BiCGStab:  Solving for Ux, Initial residual = 0.0196299, Final residual = 8.993e-11, No Iterations 2
BiCGStab:  Solving for Uy, Initial residual = 0.0249102, Final residual = 9.40357e-11, No Iterations 2
BiCGStab:  Solving for p, Initial residual = 0.0997497, Final residual = 3.66457e-09, No Iterations 44
time step continuity errors : sum local = 0.0084808, global = 0.000128484, cumulative = -0.105781
BiCGStab:  Solving for p, Initial residual = 0.0697024, Final residual = 3.51617e-09, No Iterations 44
time step continuity errors : sum local = 0.0083462, global = -0.000496703, cumulative = -0.106278
BiCGStab:  Solving for h, Initial residual = 0.0130473, Final residual = 3.99179e-10, No Iterations 2
ExecutionTime = 4.21 s  ClockTime = 4 s

Flux divergence min = 0 max = 13.8813 average: 0.249783
Mach number min = 0.39748 max = 1.03001
Field U magnitude min = 0 max = 337.847
Field p min = 67109.8 max = 132406
Field rho min = 0.87278 max = 1.49922
Field T min = 267.116 max = 338.535
Time = 59

BiCGStab:  Solving for Ux, Initial residual = 0.0193315, Final residual = 9.16345e-11, No Iterations 2
BiCGStab:  Solving for Uy, Initial residual = 0.0248019, Final residual = 9.87251e-11, No Iterations 2
BiCGStab:  Solving for p, Initial residual = 0.0991704, Final residual = 1.07845e-09, No Iterations 43
time step continuity errors : sum local = 0.00840378, global = 0.000159478, cumulative = -0.106118
BiCGStab:  Solving for p, Initial residual = 0.0693176, Final residual = 2.31033e-09, No Iterations 43
time step continuity errors : sum local = 0.00827283, global = -0.00046145, cumulative = -0.10658
BiCGStab:  Solving for h, Initial residual = 0.0128236, Final residual = 3.84357e-10, No Iterations 2
ExecutionTime = 4.29 s  ClockTime = 4 s

Flux divergence min = 0 max = 16.5391 average: 0.248548
Mach number min = 0.398028 max = 1.02686
Field U magnitude min = 0 max = 337.349
Field p min = 67022.9 max = 132227
Field rho min = 0.868907 max = 1.49607
Field T min = 267.964 max = 338.452
Time = 60

BiCGStab:  Solving for Ux, Initial residual = 0.019031, Final residual = 9.42959e-11, No Iterations 2
BiCGStab:  Solving for Uy, Initial residual = 0.0246313, Final residual = 1.03472e-10, No Iterations 2
BiCGStab:  Solving for p, Initial residual = 0.0986193, Final residual = 8.84904e-10, No Iterations 44
time step continuity errors : sum local = 0.00833326, global = 0.000190916, cumulative = -0.106389
BiCGStab:  Solving for p, Initial residual = 0.0689589, Final residual = 4.2514e-10, No Iterations 44
time step continuity errors : sum local = 0.00820755, global = -0.000425892, cumulative = -0.106815
BiCGStab:  Solving for h, Initial residual = 0.0127066, Final residual = 3.83302e-10, No Iterations 2
ExecutionTime = 4.36 s  ClockTime = 4 s

Flux divergence min = 0 max = 19.7093 average: 0.247629
Mach number min = 0.398569 max = 1.02368
Field U magnitude min = 0 max = 336.814
Field p min = 66906.9 max = 132049
Field rho min = 0.865358 max = 1.49285
Field T min = 268.742 max = 338.311
Time = 61

BiCGStab:  Solving for Ux, Initial residual = 0.0187337, Final residual = 9.756e-11, No Iterations 2
BiCGStab:  Solving for Uy, Initial residual = 0.0244501, Final residual = 1.08463e-10, No Iterations 2
BiCGStab:  Solving for p, Initial residual = 0.0978289, Final residual = 1.07105e-09, No Iterations 44
time step continuity errors : sum local = 0.0082698, global = 0.000228365, cumulative = -0.106586
BiCGStab:  Solving for p, Initial residual = 0.068444, Final residual = 4.91166e-10, No Iterations 44
time step continuity errors : sum local = 0.00814772, global = -0.000384442, cumulative = -0.106971
BiCGStab:  Solving for h, Initial residual = 0.0126586, Final residual = 3.89382e-10, No Iterations 2
ExecutionTime = 4.43 s  ClockTime = 4 s

Flux divergence min = 0 max = 23.658 average: 0.247039
Mach number min = 0.399103 max = 1.02097
Field U magnitude min = 0 max = 336.273
Field p min = 66813.2 max = 131871
Field rho min = 0.862226 max = 1.48963
Field T min = 269.341 max = 338.131
Time = 62

BiCGStab:  Solving for Ux, Initial residual = 0.0184406, Final residual = 1.01126e-10, No Iterations 2
BiCGStab:  Solving for Uy, Initial residual = 0.0242798, Final residual = 1.14066e-10, No Iterations 2
BiCGStab:  Solving for p, Initial residual = 0.0971985, Final residual = 1.02305e-09, No Iterations 44
time step continuity errors : sum local = 0.00820329, global = 0.000272193, cumulative = -0.106699
BiCGStab:  Solving for p, Initial residual = 0.0680722, Final residual = 5.5174e-10, No Iterations 44
time step continuity errors : sum local = 0.00808327, global = -0.000337416, cumulative = -0.107036
BiCGStab:  Solving for h, Initial residual = 0.0126568, Final residual = 4.01443e-10, No Iterations 2
ExecutionTime = 4.5 s  ClockTime = 5 s

Flux divergence min = 0 max = 28.5839 average: 0.246879
Mach number min = 0.399628 max = 1.0194
Field U magnitude min = 0 max = 336.108
Field p min = 66737.2 max = 131693
Field rho min = 0.859446 max = 1.48641
Field T min = 269.905 max = 337.863
Time = 63

BiCGStab:  Solving for Ux, Initial residual = 0.0181536, Final residual = 1.04518e-10, No Iterations 2
BiCGStab:  Solving for Uy, Initial residual = 0.0241894, Final residual = 1.21027e-10, No Iterations 2
BiCGStab:  Solving for p, Initial residual = 0.0967154, Final residual = 6.82604e-09, No Iterations 43
time step continuity errors : sum local = 0.00812839, global = 0.000321942, cumulative = -0.106714
BiCGStab:  Solving for p, Initial residual = 0.0677469, Final residual = 9.47108e-09, No Iterations 43
time step continuity errors : sum local = 0.00800466, global = -0.000285277, cumulative = -0.106999
BiCGStab:  Solving for h, Initial residual = 0.0126891, Final residual = 4.21723e-10, No Iterations 2
ExecutionTime = 4.58 s  ClockTime = 5 s

Flux divergence min = 6.07153e-13 max = 34.4189 average: 0.247574
Mach number min = 0.400145 max = 1.01798
Field U magnitude min = 0 max = 335.972
Field p min = 66682.1 max = 131514
Field rho min = 0.857042 max = 1.4832
Field T min = 270.438 max = 337.502
Time = 64

BiCGStab:  Solving for Ux, Initial residual = 0.0178728, Final residual = 1.07162e-10, No Iterations 2
BiCGStab:  Solving for Uy, Initial residual = 0.0241067, Final residual = 1.28494e-10, No Iterations 2
BiCGStab:  Solving for p, Initial residual = 0.0965724, Final residual = 8.53171e-09, No Iterations 46
time step continuity errors : sum local = 0.00803802, global = 0.000378331, cumulative = -0.106621
BiCGStab:  Solving for p, Initial residual = 0.0676289, Final residual = 3.169e-09, No Iterations 45
time step continuity errors : sum local = 0.00790828, global = -0.000226357, cumulative = -0.106847
BiCGStab:  Solving for h, Initial residual = 0.012734, Final residual = 4.57419e-10, No Iterations 2
ExecutionTime = 4.66 s  ClockTime = 5 s

Flux divergence min = 0 max = 40.8929 average: 0.248711
Mach number min = 0.400655 max = 1.01669
Field U magnitude min = 0 max = 335.861
Field p min = 66649.1 max = 131334
Field rho min = 0.855014 max = 1.48005
Field T min = 270.946 max = 337.067
Time = 65

BiCGStab:  Solving for Ux, Initial residual = 0.0175815, Final residual = 1.0847e-10, No Iterations 2
BiCGStab:  Solving for Uy, Initial residual = 0.0239826, Final residual = 1.35136e-10, No Iterations 2
BiCGStab:  Solving for p, Initial residual = 0.0964484, Final residual = 4.95327e-11, No Iterations 48
time step continuity errors : sum local = 0.0079514, global = 0.000445159, cumulative = -0.106402
BiCGStab:  Solving for p, Initial residual = 0.0675408, Final residual = 9.1714e-11, No Iterations 48
time step continuity errors : sum local = 0.00781261, global = -0.000158177, cumulative = -0.10656
BiCGStab:  Solving for h, Initial residual = 0.0127752, Final residual = 4.93695e-10, No Iterations 2
ExecutionTime = 4.74 s  ClockTime = 5 s

Flux divergence min = 0 max = 47.5906 average: 0.250632
Mach number min = 0.401155 max = 1.01552
Field U magnitude min = 0 max = 335.774
Field p min = 66635.3 max = 131664
Field rho min = 0.853299 max = 1.49236
Field T min = 271.434 max = 336.573
Time = 66

BiCGStab:  Solving for Ux, Initial residual = 0.0173092, Final residual = 1.08472e-10, No Iterations 2
BiCGStab:  Solving for Uy, Initial residual = 0.0238181, Final residual = 1.40051e-10, No Iterations 2
BiCGStab:  Solving for p, Initial residual = 0.0963509, Final residual = 2.59827e-10, No Iterations 47
time step continuity errors : sum local = 0.00787326, global = 0.000521333, cumulative = -0.106039
BiCGStab:  Solving for p, Initial residual = 0.0674652, Final residual = 1.28845e-09, No Iterations 47
time step continuity errors : sum local = 0.00772707, global = -8.12011e-05, cumulative = -0.10612
BiCGStab:  Solving for h, Initial residual = 0.0128117, Final residual = 5.15908e-10, No Iterations 2
ExecutionTime = 4.81 s  ClockTime = 5 s

Flux divergence min = 0 max = 53.9327 average: 0.253923
Mach number min = 0.401644 max = 1.01447
Field U magnitude min = 0 max = 335.715
Field p min = 66639.9 max = 133698
Field rho min = 0.851858 max = 1.51565
Field T min = 271.709 max = 336.047
Time = 67

BiCGStab:  Solving for Ux, Initial residual = 0.0170541, Final residual = 1.06892e-10, No Iterations 2
BiCGStab:  Solving for Uy, Initial residual = 0.0236063, Final residual = 1.42579e-10, No Iterations 2
BiCGStab:  Solving for p, Initial residual = 0.096071, Final residual = 3.53288e-09, No Iterations 47
time step continuity errors : sum local = 0.00780617, global = 0.000606778, cumulative = -0.105514
BiCGStab:  Solving for p, Initial residual = 0.0672481, Final residual = 1.69584e-09, No Iterations 47
time step continuity errors : sum local = 0.00765282, global = 4.94323e-06, cumulative = -0.105509
BiCGStab:  Solving for h, Initial residual = 0.0128384, Final residual = 5.23633e-10, No Iterations 2
ExecutionTime = 4.88 s  ClockTime = 5 s

Flux divergence min = 0 max = 58.9676 average: 0.258351
Mach number min = 0.402122 max = 1.01418
Field U magnitude min = 0 max = 335.666
Field p min = 66634.3 max = 135915
Field rho min = 0.850821 max = 1.54036
Field T min = 271.926 max = 335.506
Time = 68

BiCGStab:  Solving for Ux, Initial residual = 0.016807, Final residual = 1.03962e-10, No Iterations 2
BiCGStab:  Solving for Uy, Initial residual = 0.0233453, Final residual = 1.43082e-10, No Iterations 2
BiCGStab:  Solving for p, Initial residual = 0.0954679, Final residual = 5.96666e-09, No Iterations 47
time step continuity errors : sum local = 0.00774895, global = 0.000702407, cumulative = -0.104806
BiCGStab:  Solving for p, Initial residual = 0.0667817, Final residual = 3.87895e-09, No Iterations 47
time step continuity errors : sum local = 0.00758704, global = 0.000101502, cumulative = -0.104705
BiCGStab:  Solving for h, Initial residual = 0.0128564, Final residual = 5.16644e-10, No Iterations 2
ExecutionTime = 4.96 s  ClockTime = 5 s

Flux divergence min = 0 max = 61.8345 average: 0.263212
Mach number min = 0.402589 max = 1.01425
Field U magnitude min = 0 max = 335.849
Field p min = 66562.4 max = 138238
Field rho min = 0.850101 max = 1.5658
Field T min = 272.112 max = 334.964
Time = 69

BiCGStab:  Solving for Ux, Initial residual = 0.0165851, Final residual = 1.00086e-10, No Iterations 2
BiCGStab:  Solving for Uy, Initial residual = 0.0231052, Final residual = 1.44277e-10, No Iterations 2
BiCGStab:  Solving for p, Initial residual = 0.0946899, Final residual = 3.93218e-09, No Iterations 47
time step continuity errors : sum local = 0.00769554, global = 0.000808172, cumulative = -0.103896
BiCGStab:  Solving for p, Initial residual = 0.0662747, Final residual = 2.5718e-09, No Iterations 47
time step continuity errors : sum local = 0.00752296, global = 0.000208366, cumulative = -0.103688
BiCGStab:  Solving for h, Initial residual = 0.0128531, Final residual = 4.98086e-10, No Iterations 2
ExecutionTime = 5.03 s  ClockTime = 5 s

Flux divergence min = 0 max = 61.6021 average: 0.267524
Mach number min = 0.403043 max = 1.01463
Field U magnitude min = 0 max = 336.013
Field p min = 66543.1 max = 140556
Field rho min = 0.849494 max = 1.59093
Field T min = 272.273 max = 334.433
Time = 70

BiCGStab:  Solving for Ux, Initial residual = 0.0163968, Final residual = 9.57403e-11, No Iterations 2
BiCGStab:  Solving for Uy, Initial residual = 0.0229057, Final residual = 1.57772e-10, No Iterations 2
BiCGStab:  Solving for p, Initial residual = 0.0938586, Final residual = 4.70096e-09, No Iterations 47
time step continuity errors : sum local = 0.00763988, global = 0.000919701, cumulative = -0.102768
BiCGStab:  Solving for p, Initial residual = 0.0656192, Final residual = 2.89392e-09, No Iterations 47
time step continuity errors : sum local = 0.0074587, global = 0.000323906, cumulative = -0.102445
BiCGStab:  Solving for h, Initial residual = 0.0128139, Final residual = 4.70179e-10, No Iterations 2
ExecutionTime = 5.1 s  ClockTime = 5 s

Flux divergence min = 0 max = 57.1665 average: 0.270407
Mach number min = 0.403485 max = 1.0149
Field U magnitude min = 0 max = 336.127
Field p min = 66581.9 max = 142704
Field rho min = 0.849547 max = 1.61416
Field T min = 272.334 max = 333.919
Time = 71

BiCGStab:  Solving for Ux, Initial residual = 0.0162136, Final residual = 9.07603e-11, No Iterations 2
BiCGStab:  Solving for Uy, Initial residual = 0.0228918, Final residual = 1.89065e-10, No Iterations 2
BiCGStab:  Solving for p, Initial residual = 0.0928055, Final residual = 1.80067e-09, No Iterations 47
time step continuity errors : sum local = 0.00757768, global = 0.00104099, cumulative = -0.101404
BiCGStab:  Solving for p, Initial residual = 0.0649464, Final residual = 9.57134e-09, No Iterations 46
time step continuity errors : sum local = 0.00738833, global = 0.000452363, cumulative = -0.100951
BiCGStab:  Solving for h, Initial residual = 0.0127326, Final residual = 4.36215e-10, No Iterations 2
ExecutionTime = 5.18 s  ClockTime = 5 s

Flux divergence min = 0 max = 47.5724 average: 0.270686
Mach number min = 0.403915 max = 1.01506
Field U magnitude min = 0 max = 336.188
Field p min = 66670.5 max = 144450
Field rho min = 0.850251 max = 1.63316
Field T min = 272.349 max = 333.427
Time = 72

BiCGStab:  Solving for Ux, Initial residual = 0.0160616, Final residual = 8.53763e-11, No Iterations 2
BiCGStab:  Solving for Uy, Initial residual = 0.0230067, Final residual = 2.18497e-10, No Iterations 2
BiCGStab:  Solving for p, Initial residual = 0.0922147, Final residual = 1.99386e-09, No Iterations 47
time step continuity errors : sum local = 0.00750938, global = 0.0011695, cumulative = -0.0997817
BiCGStab:  Solving for p, Initial residual = 0.0645396, Final residual = 5.63379e-09, No Iterations 46
time step continuity errors : sum local = 0.00731546, global = 0.000592569, cumulative = -0.0991891
BiCGStab:  Solving for h, Initial residual = 0.0126306, Final residual = 4.03059e-10, No Iterations 2
ExecutionTime = 5.26 s  ClockTime = 5 s

Flux divergence min = 1.73472e-13 max = 33.7031 average: 0.267536
Mach number min = 0.404333 max = 1.01514
Field U magnitude min = 0 max = 336.215
Field p min = 66805 max = 145814
Field rho min = 0.851491 max = 1.64576
Field T min = 272.35 max = 332.964
Time = 73

BiCGStab:  Solving for Ux, Initial residual = 0.0159334, Final residual = 7.91591e-11, No Iterations 2
BiCGStab:  Solving for Uy, Initial residual = 0.0233292, Final residual = 2.42111e-10, No Iterations 2
BiCGStab:  Solving for p, Initial residual = 0.0918084, Final residual = 3.0822e-09, No Iterations 47
time step continuity errors : sum local = 0.00744308, global = 0.00130436, cumulative = -0.0978847
BiCGStab:  Solving for p, Initial residual = 0.0642691, Final residual = 9.44105e-10, No Iterations 47
time step continuity errors : sum local = 0.00724669, global = 0.000743814, cumulative = -0.0971409
BiCGStab:  Solving for h, Initial residual = 0.012535, Final residual = 3.83761e-10, No Iterations 2
ExecutionTime = 5.35 s  ClockTime = 5 s

Flux divergence min = 0 max = 27.432 average: 0.260749
Mach number min = 0.404738 max = 1.01525
Field U magnitude min = 0 max = 336.237
Field p min = 66999.6 max = 146447
Field rho min = 0.853371 max = 1.6527
Field T min = 272.313 max = 332.54
Time = 74

BiCGStab:  Solving for Ux, Initial residual = 0.015808, Final residual = 7.13597e-11, No Iterations 2
BiCGStab:  Solving for Uy, Initial residual = 0.0237736, Final residual = 2.59717e-10, No Iterations 2
BiCGStab:  Solving for p, Initial residual = 0.091456, Final residual = 9.29103e-10, No Iterations 47
time step continuity errors : sum local = 0.00738174, global = 0.00144874, cumulative = -0.0956922
BiCGStab:  Solving for p, Initial residual = 0.0640268, Final residual = 5.8509e-10, No Iterations 47
time step continuity errors : sum local = 0.00718595, global = 0.000908187, cumulative = -0.094784
BiCGStab:  Solving for h, Initial residual = 0.0124294, Final residual = 3.7636e-10, No Iterations 2
ExecutionTime = 5.43 s  ClockTime = 5 s

Flux divergence min = 0 max = 30.9109 average: 0.253157
Mach number min = 0.405128 max = 1.01566
Field U magnitude min = 0 max = 336.333
Field p min = 67126.1 max = 146168
Field rho min = 0.856282 max = 1.64982
Field T min = 272.259 max = 332.16
Time = 75

BiCGStab:  Solving for Ux, Initial residual = 0.0156828, Final residual = 6.71376e-11, No Iterations 2
BiCGStab:  Solving for Uy, Initial residual = 0.02423, Final residual = 2.73232e-10, No Iterations 2
BiCGStab:  Solving for p, Initial residual = 0.0910453, Final residual = 1.35353e-09, No Iterations 47
time step continuity errors : sum local = 0.00732633, global = 0.00160542, cumulative = -0.0931786
BiCGStab:  Solving for p, Initial residual = 0.0637975, Final residual = 1.12718e-10, No Iterations 47
time step continuity errors : sum local = 0.00713686, global = 0.00108548, cumulative = -0.0920931
BiCGStab:  Solving for h, Initial residual = 0.0122961, Final residual = 3.74574e-10, No Iterations 2
ExecutionTime = 5.52 s  ClockTime = 6 s

Flux divergence min = 0 max = 33.1924 average: 0.247079
Mach number min = 0.405502 max = 1.01589
Field U magnitude min = 0 max = 336.368
Field p min = 67314.1 max = 145044
Field rho min = 0.859181 max = 1.63763
Field T min = 272.186 max = 331.847
Time = 76

BiCGStab:  Solving for Ux, Initial residual = 0.0155646, Final residual = 7.05908e-11, No Iterations 2
BiCGStab:  Solving for Uy, Initial residual = 0.02466, Final residual = 2.84071e-10, No Iterations 2
BiCGStab:  Solving for p, Initial residual = 0.0907702, Final residual = 7.34775e-09, No Iterations 46
time step continuity errors : sum local = 0.0072784, global = 0.0017682, cumulative = -0.0903249
BiCGStab:  Solving for p, Initial residual = 0.063617, Final residual = 9.97893e-09, No Iterations 46
time step continuity errors : sum local = 0.00709553, global = 0.00126967, cumulative = -0.0890552
BiCGStab:  Solving for h, Initial residual = 0.0121487, Final residual = 3.73976e-10, No Iterations 2
ExecutionTime = 5.6 s  ClockTime = 6 s

Flux divergence min = 8.67362e-14 max = 35.9982 average: 0.239813
Mach number min = 0.405861 max = 1.01588
Field U magnitude min = 0 max = 336.352
Field p min = 67593.2 max = 143220
Field rho min = 0.862693 max = 1.61742
Field T min = 272.099 max = 331.627
Time = 77

BiCGStab:  Solving for Ux, Initial residual = 0.0154555, Final residual = 7.65328e-11, No Iterations 2
BiCGStab:  Solving for Uy, Initial residual = 0.0250641, Final residual = 2.95333e-10, No Iterations 2
BiCGStab:  Solving for p, Initial residual = 0.0904336, Final residual = 8.50903e-09, No Iterations 44
time step continuity errors : sum local = 0.00723488, global = 0.00193732, cumulative = -0.0871179
BiCGStab:  Solving for p, Initial residual = 0.0633898, Final residual = 4.24911e-09, No Iterations 45
time step continuity errors : sum local = 0.00705607, global = 0.00145868, cumulative = -0.0856592
BiCGStab:  Solving for h, Initial residual = 0.012023, Final residual = 3.74425e-10, No Iterations 2
ExecutionTime = 5.67 s  ClockTime = 6 s

Flux divergence min = 0 max = 43.2748 average: 0.230579
Mach number min = 0.406202 max = 1.01567
Field U magnitude min = 0 max = 336.308
Field p min = 67981 max = 140961
Field rho min = 0.867446 max = 1.59174
Field T min = 272.018 max = 331.56
Time = 78

BiCGStab:  Solving for Ux, Initial residual = 0.0153521, Final residual = 8.27008e-11, No Iterations 2
BiCGStab:  Solving for Uy, Initial residual = 0.0254087, Final residual = 3.09309e-10, No Iterations 2
BiCGStab:  Solving for p, Initial residual = 0.0899476, Final residual = 7.40169e-09, No Iterations 44
time step continuity errors : sum local = 0.00718922, global = 0.00210283, cumulative = -0.0835564
BiCGStab:  Solving for p, Initial residual = 0.0630866, Final residual = 3.83083e-09, No Iterations 45
time step continuity errors : sum local = 0.00701621, global = 0.00164428, cumulative = -0.0819121
[...]
Mach number min = 0.416433 max = 1.04375
Field U magnitude min = 0 max = 343.05
Field p min = 67346.5 max = 124850
Field rho min = 0.871697 max = 1.38428
Field T min = 268.202 max = 315.111
Time = 2982

BiCGStab:  Solving for Ux, Initial residual = 7.05265e-07, Final residual = 3.55772e-11, No Iterations 1
BiCGStab:  Solving for Uy, Initial residual = 8.34245e-08, Final residual = 8.28558e-12, No Iterations 1
BiCGStab:  Solving for p, Initial residual = 7.04247e-07, Final residual = 7.41104e-09, No Iterations 26
time step continuity errors : sum local = 8.42071e-08, global = 8.40777e-08, cumulative = 0.0956326
BiCGStab:  Solving for p, Initial residual = 4.87354e-07, Final residual = 5.46299e-09, No Iterations 26
time step continuity errors : sum local = 8.60296e-08, global = 8.60296e-08, cumulative = 0.0956327
BiCGStab:  Solving for h, Initial residual = 8.68997e-07, Final residual = 1.36545e-10, No Iterations 1
ExecutionTime = 209.59 s  ClockTime = 224 s

Flux divergence min = 0 max = 0.000121474 average: 1.13215e-06
Mach number min = 0.416433 max = 1.04375
Field U magnitude min = 0 max = 343.05
Field p min = 67346.5 max = 124850
Field rho min = 0.871697 max = 1.38428
Field T min = 268.202 max = 315.111
Time = 2983

BiCGStab:  Solving for Ux, Initial residual = 7.04033e-07, Final residual = 3.56216e-11, No Iterations 1
BiCGStab:  Solving for Uy, Initial residual = 8.318e-08, Final residual = 8.28488e-12, No Iterations 1
BiCGStab:  Solving for p, Initial residual = 7.01202e-07, Final residual = 7.40368e-09, No Iterations 26
time step continuity errors : sum local = 8.42016e-08, global = 8.41014e-08, cumulative = 0.0956328
BiCGStab:  Solving for p, Initial residual = 4.85317e-07, Final residual = 5.96599e-09, No Iterations 26
time step continuity errors : sum local = 8.60176e-08, global = 8.60176e-08, cumulative = 0.0956329
BiCGStab:  Solving for h, Initial residual = 8.65995e-07, Final residual = 1.36286e-10, No Iterations 1
ExecutionTime = 209.65 s  ClockTime = 224 s

Flux divergence min = 4.55365e-13 max = 0.000121207 average: 1.15962e-06
Mach number min = 0.416433 max = 1.04375
Field U magnitude min = 0 max = 343.05
Field p min = 67346.5 max = 124850
Field rho min = 0.871696 max = 1.38428
Field T min = 268.202 max = 315.111
Time = 2984

BiCGStab:  Solving for Ux, Initial residual = 7.02855e-07, Final residual = 3.5667e-11, No Iterations 1
BiCGStab:  Solving for Uy, Initial residual = 8.29396e-08, Final residual = 8.28415e-12, No Iterations 1
BiCGStab:  Solving for p, Initial residual = 6.98901e-07, Final residual = 6.57832e-09, No Iterations 26
time step continuity errors : sum local = 8.39922e-08, global = 8.38389e-08, cumulative = 0.0956329
BiCGStab:  Solving for p, Initial residual = 4.83586e-07, Final residual = 5.3363e-09, No Iterations 26
time step continuity errors : sum local = 8.58029e-08, global = 8.58029e-08, cumulative = 0.095633
BiCGStab:  Solving for h, Initial residual = 8.63336e-07, Final residual = 1.36052e-10, No Iterations 1
ExecutionTime = 209.7 s  ClockTime = 225 s

Flux divergence min = 0 max = 0.000120933 average: 1.12318e-06
Mach number min = 0.416433 max = 1.04375
Field U magnitude min = 0 max = 343.05
Field p min = 67346.5 max = 124850
Field rho min = 0.871696 max = 1.38428
Field T min = 268.202 max = 315.111
Time = 2985

BiCGStab:  Solving for Ux, Initial residual = 7.0164e-07, Final residual = 3.57105e-11, No Iterations 1
BiCGStab:  Solving for Uy, Initial residual = 8.26932e-08, Final residual = 8.28269e-12, No Iterations 1
BiCGStab:  Solving for p, Initial residual = 6.96176e-07, Final residual = 7.20772e-09, No Iterations 26
time step continuity errors : sum local = 8.39382e-08, global = 8.38313e-08, cumulative = 0.0956331
BiCGStab:  Solving for p, Initial residual = 4.81875e-07, Final residual = 5.21663e-09, No Iterations 26
time step continuity errors : sum local = 8.57122e-08, global = 8.57122e-08, cumulative = 0.0956332
BiCGStab:  Solving for h, Initial residual = 8.6055e-07, Final residual = 1.35812e-10, No Iterations 1
ExecutionTime = 209.76 s  ClockTime = 225 s

Flux divergence min = 7.81981e-13 max = 0.000120656 average: 1.11556e-06
Mach number min = 0.416433 max = 1.04375
Field U magnitude min = 0 max = 343.05
Field p min = 67346.5 max = 124850
Field rho min = 0.871696 max = 1.38428
Field T min = 268.202 max = 315.111
Time = 2986

BiCGStab:  Solving for Ux, Initial residual = 7.0045e-07, Final residual = 3.57542e-11, No Iterations 1
BiCGStab:  Solving for Uy, Initial residual = 8.24487e-08, Final residual = 8.28114e-12, No Iterations 1
BiCGStab:  Solving for p, Initial residual = 6.93773e-07, Final residual = 7.39534e-09, No Iterations 26
time step continuity errors : sum local = 8.38166e-08, global = 8.37086e-08, cumulative = 0.0956333
BiCGStab:  Solving for p, Initial residual = 4.80292e-07, Final residual = 5.17943e-09, No Iterations 26
time step continuity errors : sum local = 8.56147e-08, global = 8.56147e-08, cumulative = 0.0956334
BiCGStab:  Solving for h, Initial residual = 8.57776e-07, Final residual = 1.35573e-10, No Iterations 1
ExecutionTime = 209.81 s  ClockTime = 225 s

Flux divergence min = 0 max = 0.000120384 average: 1.10811e-06
Mach number min = 0.416433 max = 1.04375
Field U magnitude min = 0 max = 343.05
Field p min = 67346.5 max = 124850
Field rho min = 0.871696 max = 1.38428
Field T min = 268.202 max = 315.111
Time = 2987

BiCGStab:  Solving for Ux, Initial residual = 6.99268e-07, Final residual = 3.57974e-11, No Iterations 1
BiCGStab:  Solving for Uy, Initial residual = 8.22005e-08, Final residual = 8.27915e-12, No Iterations 1
BiCGStab:  Solving for p, Initial residual = 6.91392e-07, Final residual = 6.75872e-09, No Iterations 26
time step continuity errors : sum local = 8.3783e-08, global = 8.36499e-08, cumulative = 0.0956334
BiCGStab:  Solving for p, Initial residual = 4.78577e-07, Final residual = 5.80343e-09, No Iterations 26
time step continuity errors : sum local = 8.55484e-08, global = 8.55484e-08, cumulative = 0.0956335
BiCGStab:  Solving for h, Initial residual = 8.54845e-07, Final residual = 1.35325e-10, No Iterations 1
ExecutionTime = 209.86 s  ClockTime = 225 s

Flux divergence min = 4.33681e-14 max = 0.000120048 average: 1.14342e-06
Mach number min = 0.416433 max = 1.04375
Field U magnitude min = 0 max = 343.05
Field p min = 67346.4 max = 124850
Field rho min = 0.871696 max = 1.38428
Field T min = 268.202 max = 315.111
Time = 2988

BiCGStab:  Solving for Ux, Initial residual = 6.98114e-07, Final residual = 3.58407e-11, No Iterations 1
BiCGStab:  Solving for Uy, Initial residual = 8.19469e-08, Final residual = 8.27656e-12, No Iterations 1
BiCGStab:  Solving for p, Initial residual = 6.89217e-07, Final residual = 8.96214e-09, No Iterations 26
time step continuity errors : sum local = 8.38839e-08, global = 8.38326e-08, cumulative = 0.0956336
BiCGStab:  Solving for p, Initial residual = 4.77571e-07, Final residual = 5.86455e-09, No Iterations 26
time step continuity errors : sum local = 8.50971e-08, global = 8.50971e-08, cumulative = 0.0956337
BiCGStab:  Solving for h, Initial residual = 8.52227e-07, Final residual = 1.35118e-10, No Iterations 1
ExecutionTime = 209.91 s  ClockTime = 225 s

Flux divergence min = 0 max = 0.000119569 average: 1.16818e-06
Mach number min = 0.416433 max = 1.04375
Field U magnitude min = 0 max = 343.05
Field p min = 67346.4 max = 124850
Field rho min = 0.871696 max = 1.38428
Field T min = 268.202 max = 315.111
Time = 2989

BiCGStab:  Solving for Ux, Initial residual = 6.96939e-07, Final residual = 3.58818e-11, No Iterations 1
BiCGStab:  Solving for Uy, Initial residual = 8.1702e-08, Final residual = 8.27404e-12, No Iterations 1
BiCGStab:  Solving for p, Initial residual = 6.8742e-07, Final residual = 7.93743e-09, No Iterations 26
time step continuity errors : sum local = 8.31603e-08, global = 8.298e-08, cumulative = 0.0956338
BiCGStab:  Solving for p, Initial residual = 4.76163e-07, Final residual = 7.27698e-09, No Iterations 26
time step continuity errors : sum local = 8.57446e-08, global = 8.57446e-08, cumulative = 0.0956339
BiCGStab:  Solving for h, Initial residual = 8.48909e-07, Final residual = 1.34798e-10, No Iterations 1
ExecutionTime = 209.97 s  ClockTime = 225 s

Flux divergence min = 2.12504e-12 max = 0.000119795 average: 1.19619e-06
Mach number min = 0.416433 max = 1.04375
Field U magnitude min = 0 max = 343.051
Field p min = 67346.4 max = 124850
Field rho min = 0.871696 max = 1.38428
Field T min = 268.202 max = 315.111
Time = 2990

BiCGStab:  Solving for Ux, Initial residual = 6.95849e-07, Final residual = 3.59274e-11, No Iterations 1
BiCGStab:  Solving for Uy, Initial residual = 8.14408e-08, Final residual = 8.27075e-12, No Iterations 1
BiCGStab:  Solving for p, Initial residual = 6.85292e-07, Final residual = 7.52235e-09, No Iterations 26
time step continuity errors : sum local = 8.32633e-08, global = 8.30751e-08, cumulative = 0.095634
BiCGStab:  Solving for p, Initial residual = 4.74517e-07, Final residual = 5.78905e-09, No Iterations 26
time step continuity errors : sum local = 8.49811e-08, global = 8.49811e-08, cumulative = 0.095634
BiCGStab:  Solving for h, Initial residual = 8.46678e-07, Final residual = 1.34642e-10, No Iterations 1
ExecutionTime = 210.02 s  ClockTime = 225 s

Flux divergence min = 2.77556e-12 max = 0.000119125 average: 1.12651e-06
Mach number min = 0.416433 max = 1.04375
Field U magnitude min = 0 max = 343.051
Field p min = 67346.4 max = 124850
Field rho min = 0.871695 max = 1.38428
Field T min = 268.202 max = 315.111
Time = 2991

BiCGStab:  Solving for Ux, Initial residual = 6.94623e-07, Final residual = 3.5965e-11, No Iterations 1
BiCGStab:  Solving for Uy, Initial residual = 8.11814e-08, Final residual = 8.26686e-12, No Iterations 1
BiCGStab:  Solving for p, Initial residual = 6.82299e-07, Final residual = 4.57815e-09, No Iterations 27
time step continuity errors : sum local = 8.3293e-08, global = 8.30679e-08, cumulative = 0.0956341
BiCGStab:  Solving for p, Initial residual = 4.72229e-07, Final residual = 6.25644e-09, No Iterations 26
time step continuity errors : sum local = 8.47291e-08, global = 8.47291e-08, cumulative = 0.0956342
BiCGStab:  Solving for h, Initial residual = 8.43765e-07, Final residual = 1.34435e-10, No Iterations 1
ExecutionTime = 210.08 s  ClockTime = 225 s

Flux divergence min = 2.37169e-15 max = 0.000118815 average: 1.18325e-06
Mach number min = 0.416433 max = 1.04376
Field U magnitude min = 0 max = 343.051
Field p min = 67346.4 max = 124850
Field rho min = 0.871695 max = 1.38428
Field T min = 268.202 max = 315.111
Time = 2992

BiCGStab:  Solving for Ux, Initial residual = 6.93488e-07, Final residual = 3.60037e-11, No Iterations 1
BiCGStab:  Solving for Uy, Initial residual = 8.09233e-08, Final residual = 8.26264e-12, No Iterations 1
BiCGStab:  Solving for p, Initial residual = 6.80256e-07, Final residual = 7.09212e-09, No Iterations 26
time step continuity errors : sum local = 8.30537e-08, global = 8.28871e-08, cumulative = 0.0956343
BiCGStab:  Solving for p, Initial residual = 4.71065e-07, Final residual = 9.33929e-09, No Iterations 26
time step continuity errors : sum local = 8.37125e-08, global = 8.37125e-08, cumulative = 0.0956344
BiCGStab:  Solving for h, Initial residual = 8.41484e-07, Final residual = 1.34366e-10, No Iterations 1
ExecutionTime = 210.13 s  ClockTime = 225 s

Flux divergence min = 0 max = 0.000118156 average: 1.33957e-06
Mach number min = 0.416433 max = 1.04376
Field U magnitude min = 0 max = 343.051
Field p min = 67346.4 max = 124850
Field rho min = 0.871695 max = 1.38428
Field T min = 268.202 max = 315.111
Time = 2993

BiCGStab:  Solving for Ux, Initial residual = 6.92278e-07, Final residual = 3.60334e-11, No Iterations 1
BiCGStab:  Solving for Uy, Initial residual = 8.06916e-08, Final residual = 8.25951e-12, No Iterations 1
BiCGStab:  Solving for p, Initial residual = 6.78383e-07, Final residual = 7.27707e-09, No Iterations 26
time step continuity errors : sum local = 8.3183e-08, global = 8.30327e-08, cumulative = 0.0956345
BiCGStab:  Solving for p, Initial residual = 4.69872e-07, Final residual = 7.05066e-09, No Iterations 26
time step continuity errors : sum local = 8.57355e-08, global = 8.57355e-08, cumulative = 0.0956345
BiCGStab:  Solving for h, Initial residual = 8.38164e-07, Final residual = 1.33879e-10, No Iterations 1
ExecutionTime = 210.18 s  ClockTime = 225 s

Flux divergence min = 2.77556e-12 max = 0.000118614 average: 1.15569e-06
Mach number min = 0.416433 max = 1.04376
Field U magnitude min = 0 max = 343.051
Field p min = 67346.3 max = 124850
Field rho min = 0.871695 max = 1.38428
Field T min = 268.202 max = 315.111
Time = 2994

BiCGStab:  Solving for Ux, Initial residual = 6.91207e-07, Final residual = 3.6086e-11, No Iterations 1
BiCGStab:  Solving for Uy, Initial residual = 8.03886e-08, Final residual = 8.2535e-12, No Iterations 1
BiCGStab:  Solving for p, Initial residual = 6.75397e-07, Final residual = 6.73684e-09, No Iterations 26
time step continuity errors : sum local = 8.28792e-08, global = 8.26878e-08, cumulative = 0.0956346
BiCGStab:  Solving for p, Initial residual = 4.67647e-07, Final residual = 5.04811e-09, No Iterations 26
time step continuity errors : sum local = 8.45158e-08, global = 8.45158e-08, cumulative = 0.0956347
BiCGStab:  Solving for h, Initial residual = 8.35995e-07, Final residual = 1.33735e-10, No Iterations 1
ExecutionTime = 210.23 s  ClockTime = 225 s

Flux divergence min = 1.13841e-12 max = 0.000117775 average: 1.06304e-06
Mach number min = 0.416433 max = 1.04376
Field U magnitude min = 0 max = 343.051
Field p min = 67346.3 max = 124850
Field rho min = 0.871695 max = 1.38428
Field T min = 268.202 max = 315.111
Time = 2995

BiCGStab:  Solving for Ux, Initial residual = 6.9e-07, Final residual = 3.61213e-11, No Iterations 1
BiCGStab:  Solving for Uy, Initial residual = 8.01214e-08, Final residual = 8.24796e-12, No Iterations 1
BiCGStab:  Solving for p, Initial residual = 6.72439e-07, Final residual = 5.17894e-09, No Iterations 26
time step continuity errors : sum local = 8.28069e-08, global = 8.26106e-08, cumulative = 0.0956348
BiCGStab:  Solving for p, Initial residual = 4.65435e-07, Final residual = 9.8331e-09, No Iterations 25
time step continuity errors : sum local = 8.39643e-08, global = 8.39643e-08, cumulative = 0.0956349
BiCGStab:  Solving for h, Initial residual = 8.32607e-07, Final residual = 1.33575e-10, No Iterations 1
ExecutionTime = 210.29 s  ClockTime = 225 s

Flux divergence min = 0 max = 0.000117151 average: 1.35071e-06
Mach number min = 0.416433 max = 1.04376
Field U magnitude min = 0 max = 343.051
Field p min = 67346.3 max = 124850
Field rho min = 0.871695 max = 1.38428
Field T min = 268.202 max = 315.111
Time = 2996

BiCGStab:  Solving for Ux, Initial residual = 6.88965e-07, Final residual = 3.61547e-11, No Iterations 1
BiCGStab:  Solving for Uy, Initial residual = 7.98773e-08, Final residual = 8.24321e-12, No Iterations 1
BiCGStab:  Solving for p, Initial residual = 6.72056e-07, Final residual = 6.76798e-09, No Iterations 26
time step continuity errors : sum local = 8.26318e-08, global = 8.23802e-08, cumulative = 0.095635
BiCGStab:  Solving for p, Initial residual = 4.65434e-07, Final residual = 3.09061e-09, No Iterations 27
time step continuity errors : sum local = 8.4181e-08, global = 8.41775e-08, cumulative = 0.095635
BiCGStab:  Solving for h, Initial residual = 8.31029e-07, Final residual = 1.33301e-10, No Iterations 1
ExecutionTime = 210.34 s  ClockTime = 225 s

Flux divergence min = 0 max = 0.000117068 average: 9.47032e-07
Mach number min = 0.416433 max = 1.04376
Field U magnitude min = 0 max = 343.051
Field p min = 67346.3 max = 124850
Field rho min = 0.871695 max = 1.38428
Field T min = 268.202 max = 315.111
Time = 2997

BiCGStab:  Solving for Ux, Initial residual = 6.87686e-07, Final residual = 3.61939e-11, No Iterations 1
BiCGStab:  Solving for Uy, Initial residual = 7.95824e-08, Final residual = 8.23577e-12, No Iterations 1
BiCGStab:  Solving for p, Initial residual = 6.67719e-07, Final residual = 5.60277e-09, No Iterations 26
time step continuity errors : sum local = 8.2293e-08, global = 8.20954e-08, cumulative = 0.0956351
BiCGStab:  Solving for p, Initial residual = 4.62428e-07, Final residual = 4.92498e-09, No Iterations 26
time step continuity errors : sum local = 8.43818e-08, global = 8.43818e-08, cumulative = 0.0956352
BiCGStab:  Solving for h, Initial residual = 8.27915e-07, Final residual = 1.33046e-10, No Iterations 1
ExecutionTime = 210.4 s  ClockTime = 225 s

Flux divergence min = 0 max = 0.000116818 average: 1.02566e-06
Mach number min = 0.416433 max = 1.04376
Field U magnitude min = 0 max = 343.051
Field p min = 67346.3 max = 124850
Field rho min = 0.871694 max = 1.38428
Field T min = 268.202 max = 315.111
Time = 2998

BiCGStab:  Solving for Ux, Initial residual = 6.86602e-07, Final residual = 3.62319e-11, No Iterations 1
BiCGStab:  Solving for Uy, Initial residual = 7.93112e-08, Final residual = 8.22939e-12, No Iterations 1
BiCGStab:  Solving for p, Initial residual = 6.6518e-07, Final residual = 5.47102e-09, No Iterations 26
time step continuity errors : sum local = 8.22914e-08, global = 8.21169e-08, cumulative = 0.0956353
BiCGStab:  Solving for p, Initial residual = 4.60648e-07, Final residual = 4.06968e-09, No Iterations 26
time step continuity errors : sum local = 8.38364e-08, global = 8.38364e-08, cumulative = 0.0956354
BiCGStab:  Solving for h, Initial residual = 8.25488e-07, Final residual = 1.32864e-10, No Iterations 1
ExecutionTime = 210.45 s  ClockTime = 225 s

Flux divergence min = 0 max = 0.000116227 average: 9.8646e-07
Mach number min = 0.416433 max = 1.04376
Field U magnitude min = 0 max = 343.051
Field p min = 67346.3 max = 124850
Field rho min = 0.871694 max = 1.38428
Field T min = 268.202 max = 315.111
Time = 2999

BiCGStab:  Solving for Ux, Initial residual = 6.85449e-07, Final residual = 3.62654e-11, No Iterations 1
BiCGStab:  Solving for Uy, Initial residual = 7.90456e-08, Final residual = 8.22282e-12, No Iterations 1
BiCGStab:  Solving for p, Initial residual = 6.62746e-07, Final residual = 5.80228e-09, No Iterations 26
time step continuity errors : sum local = 8.20449e-08, global = 8.18858e-08, cumulative = 0.0956355
BiCGStab:  Solving for p, Initial residual = 4.59116e-07, Final residual = 3.88327e-09, No Iterations 26
time step continuity errors : sum local = 8.35845e-08, global = 8.35845e-08, cumulative = 0.0956355
BiCGStab:  Solving for h, Initial residual = 8.2288e-07, Final residual = 1.32656e-10, No Iterations 1
ExecutionTime = 210.5 s  ClockTime = 225 s

Flux divergence min = 0 max = 0.000115809 average: 9.74875e-07
Mach number min = 0.416433 max = 1.04376
Field U magnitude min = 0 max = 343.051
Field p min = 67346.3 max = 124850
Field rho min = 0.871694 max = 1.38428
Field T min = 268.201 max = 315.111
Time = 3000

BiCGStab:  Solving for Ux, Initial residual = 6.84324e-07, Final residual = 3.6299e-11, No Iterations 1
BiCGStab:  Solving for Uy, Initial residual = 7.8786e-08, Final residual = 8.21619e-12, No Iterations 1
BiCGStab:  Solving for p, Initial residual = 6.60592e-07, Final residual = 7.92585e-09, No Iterations 26
time step continuity errors : sum local = 8.2191e-08, global = 8.21256e-08, cumulative = 0.0956356
BiCGStab:  Solving for p, Initial residual = 4.58452e-07, Final residual = 3.438e-09, No Iterations 26
time step continuity errors : sum local = 8.3342e-08, global = 8.3342e-08, cumulative = 0.0956357
BiCGStab:  Solving for h, Initial residual = 8.20412e-07, Final residual = 1.32465e-10, No Iterations 1
ExecutionTime = 210.65 s  ClockTime = 225 s

Flux divergence min = 7.58942e-13 max = 0.000115364 average: 9.41672e-07
Writing divFlux field
Mach number min = 0.416433 max = 1.04376
Writing Mach number field
Field U magnitude min = 0 max = 343.051
Field p min = 67346.2 max = 124850
Field rho min = 0.871694 max = 1.38428
Field T min = 268.201 max = 315.111
End

