/*---------------------------------------------------------------------------*\
| =========                 |                                                 |
| \\      /  F ield         | foam-extend: Open Source CFD                    |
|  \\    /   O peration     | Version:     4.0                                |
|   \\  /    A nd           | Web:         http://www.foam-extend.org         |
|    \\/     M anipulation  | For copyright notice see file Copyright         |
\*---------------------------------------------------------------------------*/
Build    : 4.0-268bb07d15d8
Exec     : steadyUniversalMRFFoam
Date     : Apr 19 2019
Time     : 01:54:05
Host     : ubuntu-14
PID      : 24707
CtrlDict : "/home/stas/foam/foam-extend-4.0/tutorials/compressible/steadyUniversalMRFFoam/axialTurbineGgiJump/system/controlDict"
Case     : /home/stas/foam/foam-extend-4.0/tutorials/compressible/steadyUniversalMRFFoam/axialTurbineGgiJump
nProcs   : 1
SigFpe   : Enabling floating point exception trapping (FOAM_SIGFPE).

// * * * * * * * * * * * * * * * * * * * * * * * * * * * * * * * * * * * * * //
Create time

Create mesh for time = 0

Initializing the GGI interpolator between master/shadow patches: GVOUTLET/RUINLET
Initializing the GGI interpolator between master/shadow patches: RUOUTLET/DTINLET
Initializing the GGI interpolator between master/shadow patches: RUCYCLIC1/RUCYCLIC2
Initializing the GGI interpolator between master/shadow patches: DTCYCLIC1/DTCYCLIC2

PIMPLE: Operating solver in PISO mode

Reading thermophysical properties

Selecting thermodynamics package hPsiThermo<pureMixture<constTransport<specieThermo<hConstThermo<perfectGas>>>>>

Reading field U

Reading/calculating face flux field phi

Creating turbulence model

Selecting RAS turbulence model kEpsilon
kEpsilonCoeffs
{
    Cmu             0.09;
    C1              1.44;
    C2              1.92;
    alphaEps        0.76923;
    C3              -0.33;
    sigmak          1;
    sigmaEps        1.3;
    Prt             1;
}

Creating MRF for cell zone rotor. rpm = -3495.0425503
Excluded patches: 1(12)

Starting time loop

Creating ggi check function object
Time = 1

smoothSolver:  Solving for Ux, Initial residual = 0.999999999998, Final residual = 0.00525804357769, No Iterations 2
smoothSolver:  Solving for Uy, Initial residual = 0.999999999999, Final residual = 0.00508235525479, No Iterations 2
smoothSolver:  Solving for Uz, Initial residual = 1, Final residual = 0.0036551314505, No Iterations 2
GAMG:  Solving for p, Initial residual = 1, Final residual = 0.0242140840974, No Iterations 5
time step continuity errors : sum local = 5.22249635369, global = -0.226363374548, cumulative = -0.226363374548
smoothSolver:  Solving for i, Initial residual = 0.992329074915, Final residual = 0.00196374528145, No Iterations 2
smoothSolver:  Solving for epsilon, Initial residual = 0.0135352280302, Final residual = 2.25267494001e-05, No Iterations 2
smoothSolver:  Solving for k, Initial residual = 1, Final residual = 0.0026931890593, No Iterations 2
ExecutionTime = 0.08 s  ClockTime = 0 s

GGI pair (GVOUTLET, RUINLET)
Area: 0.00469999625306 0.00469999625306 Diff = 0 or 0 % 
Flux: 0.0107872876549 0.0107872876549 Diff = 2.77555756156e-17 or 2.57298929105e-13 %
GGI pair (RUOUTLET, DTINLET)
Area: 0.00469999625293 0.00469999625293 Diff = 0 or 0 % 
Flux: 0.00939304959751 0.00939304959751 Diff = 5.55111512313e-17 or 5.90981136158e-13 %
Cyclic GGI pair (RUCYCLIC1, RUCYCLIC2)
Area: 0.00221580595009 0.00221580595006 Diff = 3.09218796402e-14 or 1.39551388238e-09 % 
Flux: 0.0945323699876 0.0945323699842 Diff = -3.38012950962e-12 or 3.57563182862e-09 %
Cyclic GGI pair (DTCYCLIC1, DTCYCLIC2)
Area: 0.00349999999952 0.00349999999943 Diff = 8.85771490877e-14 or 2.53077568857e-09 % 
Flux: 0.00263276710355 0.0026327671043 Diff = 7.41493672018e-13 or 2.81640434894e-08 %
Time = 2

smoothSolver:  Solving for Ux, Initial residual = 0.0686321092983, Final residual = 0.000103249733861, No Iterations 2
smoothSolver:  Solving for Uy, Initial residual = 0.105151828538, Final residual = 0.000173449698213, No Iterations 2
smoothSolver:  Solving for Uz, Initial residual = 0.0812547191115, Final residual = 0.0001603048277, No Iterations 2
GAMG:  Solving for p, Initial residual = 0.937125868271, Final residual = 0.0244398073383, No Iterations 5
time step continuity errors : sum local = 8.60106873464, global = 0.378216626405, cumulative = 0.151853251857
smoothSolver:  Solving for i, Initial residual = 0.357391941906, Final residual = 0.0010702076951, No Iterations 2
smoothSolver:  Solving for epsilon, Initial residual = 0.0155693087673, Final residual = 3.55983985157e-05, No Iterations 2
smoothSolver:  Solving for k, Initial residual = 0.238331396862, Final residual = 0.000801702041033, No Iterations 2
ExecutionTime = 0.1 s  ClockTime = 0 s

GGI pair (GVOUTLET, RUINLET)
Area: 0.00469999625306 0.00469999625306 Diff = 0 or 0 % 
Flux: 0.0150358323795 0.0150358323795 Diff = -9.71445146547e-17 or 6.46086709419e-13 %
GGI pair (RUOUTLET, DTINLET)
Area: 0.00469999625293 0.00469999625293 Diff = 0 or 0 % 
Flux: 0.0119020506092 0.0119020506092 Diff = -7.6327832943e-17 or 6.4129985201e-13 %
Cyclic GGI pair (RUCYCLIC1, RUCYCLIC2)
Area: 0.00221580595009 0.00221580595006 Diff = 3.09218796402e-14 or 1.39551388238e-09 % 
Flux: 0.074820581045 0.0748205810423 Diff = -2.70382327638e-12 or 3.61374268767e-09 %
Cyclic GGI pair (DTCYCLIC1, DTCYCLIC2)
Area: 0.00349999999952 0.00349999999943 Diff = 8.85771490877e-14 or 2.53077568857e-09 % 
Flux: 0.00317069024359 0.00317069024424 Diff = 6.50553829556e-13 or 2.0517735243e-08 %
Time = 3

smoothSolver:  Solving for Ux, Initial residual = 0.163099116928, Final residual = 0.000274555409821, No Iterations 2
smoothSolver:  Solving for Uy, Initial residual = 0.181602783887, Final residual = 0.000461729275474, No Iterations 2
smoothSolver:  Solving for Uz, Initial residual = 0.181445122873, Final residual = 0.000486478392188, No Iterations 2
GAMG:  Solving for p, Initial residual = 0.746329078074, Final residual = 0.0327591540403, No Iterations 4
time step continuity errors : sum local = 9.87949486351, global = 1.03929002341, cumulative = 1.19114327527
smoothSolver:  Solving for i, Initial residual = 0.268531602433, Final residual = 0.00078938580807, No Iterations 2
smoothSolver:  Solving for epsilon, Initial residual = 0.0249882508054, Final residual = 4.16736931083e-05, No Iterations 2
smoothSolver:  Solving for k, Initial residual = 0.176584600708, Final residual = 0.000485306193985, No Iterations 2
ExecutionTime = 0.13 s  ClockTime = 0 s

GGI pair (GVOUTLET, RUINLET)
Area: 0.00469999625306 0.00469999625306 Diff = 0 or 0 % 
Flux: 0.017555156789 0.017555156789 Diff = -1.04083408559e-17 or 5.92893642648e-14 %
GGI pair (RUOUTLET, DTINLET)
Area: 0.00469999625293 0.00469999625293 Diff = 0 or 0 % 
Flux: 0.0132986489837 0.0132986489837 Diff = 4.16333634234e-17 or 3.13064608852e-13 %
Cyclic GGI pair (RUCYCLIC1, RUCYCLIC2)
Area: 0.00221580595009 0.00221580595006 Diff = 3.09218796402e-14 or 1.39551388238e-09 % 
Flux: 0.0783637123813 0.0783637123783 Diff = -3.00497127181e-12 or 3.83464639499e-09 %
Cyclic GGI pair (DTCYCLIC1, DTCYCLIC2)
Area: 0.00349999999952 0.00349999999943 Diff = 8.85771490877e-14 or 2.53077568857e-09 % 
Flux: 0.00334072741678 0.00334072741731 Diff = 5.29579852193e-13 or 1.58522317485e-08 %
Time = 4

smoothSolver:  Solving for Ux, Initial residual = 0.189761723032, Final residual = 0.000280583527788, No Iterations 2
smoothSolver:  Solving for Uy, Initial residual = 0.209504391605, Final residual = 0.000478693270196, No Iterations 2
smoothSolver:  Solving for Uz, Initial residual = 0.1891408123, Final residual = 0.000507807938668, No Iterations 2
GAMG:  Solving for p, Initial residual = 0.519047027145, Final residual = 0.0246959275598, No Iterations 4
time step continuity errors : sum local = 9.09769875787, global = 2.02537520366, cumulative = 3.21651847893
smoothSolver:  Solving for i, Initial residual = 0.149161964293, Final residual = 0.000548914719102, No Iterations 2
smoothSolver:  Solving for epsilon, Initial residual = 0.0583176756434, Final residual = 0.000109198971385, No Iterations 2
smoothSolver:  Solving for k, Initial residual = 0.191903333873, Final residual = 0.000502989439263, No Iterations 2
ExecutionTime = 0.15 s  ClockTime = 0 s

GGI pair (GVOUTLET, RUINLET)
Area: 0.00469999625306 0.00469999625306 Diff = 0 or 0 % 
Flux: 0.0164458404067 0.0164458404067 Diff = -4.51028103754e-17 or 2.74250565858e-13 %
GGI pair (RUOUTLET, DTINLET)
Area: 0.00469999625293 0.00469999625293 Diff = 0 or 0 % 
Flux: 0.0148490391636 0.0148490391636 Diff = 0 or 0 %
Cyclic GGI pair (RUCYCLIC1, RUCYCLIC2)
Area: 0.00221580595009 0.00221580595006 Diff = 3.09218796402e-14 or 1.39551388238e-09 % 
Flux: 0.0757163096758 0.0757163096726 Diff = -3.13662984475e-12 or 4.14260792447e-09 %
Cyclic GGI pair (DTCYCLIC1, DTCYCLIC2)
Area: 0.00349999999952 0.00349999999943 Diff = 8.85771490877e-14 or 2.53077568857e-09 % 
Flux: 0.00333318535009 0.00333318535052 Diff = 4.25041946084e-13 or 1.27518244994e-08 %
Time = 5

smoothSolver:  Solving for Ux, Initial residual = 0.137161865142, Final residual = 0.000243843166472, No Iterations 2
smoothSolver:  Solving for Uy, Initial residual = 0.152803172741, Final residual = 0.000450543747222, No Iterations 2
smoothSolver:  Solving for Uz, Initial residual = 0.147552897393, Final residual = 0.000457662803655, No Iterations 2
GAMG:  Solving for p, Initial residual = 0.418496326117, Final residual = 0.0195068837798, No Iterations 4
time step continuity errors : sum local = 9.65754725793, global = 3.79737250271, cumulative = 7.01389098163
smoothSolver:  Solving for i, Initial residual = 0.123888490458, Final residual = 0.000508187419466, No Iterations 2
smoothSolver:  Solving for epsilon, Initial residual = 0.100055417734, Final residual = 0.00017177073357, No Iterations 2
smoothSolver:  Solving for k, Initial residual = 0.195809709828, Final residual = 0.000464263931193, No Iterations 2
ExecutionTime = 0.17 s  ClockTime = 0 s

GGI pair (GVOUTLET, RUINLET)
Area: 0.00469999625306 0.00469999625306 Diff = 0 or 0 % 
Flux: 0.0189012267598 0.0189012267598 Diff = -3.46944695195e-18 or 1.83556707512e-14 %
GGI pair (RUOUTLET, DTINLET)
Area: 0.00469999625293 0.00469999625293 Diff = 0 or 0 % 
Flux: 0.0182129034334 0.0182129034334 Diff = -1.38777878078e-17 or 7.61975588274e-14 %
Cyclic GGI pair (RUCYCLIC1, RUCYCLIC2)
Area: 0.00221580595009 0.00221580595006 Diff = 3.09218796402e-14 or 1.39551388238e-09 % 
Flux: 0.0754734556484 0.0754734556449 Diff = -3.45112827205e-12 or 4.57263847587e-09 %
Cyclic GGI pair (DTCYCLIC1, DTCYCLIC2)
Area: 0.00349999999952 0.00349999999943 Diff = 8.85771490877e-14 or 2.53077568857e-09 % 
Flux: 0.00349137287363 0.00349137287396 Diff = 3.34791656204e-13 or 9.58911202904e-09 %
Time = 6

smoothSolver:  Solving for Ux, Initial residual = 0.110939117144, Final residual = 0.000221176335937, No Iterations 2
smoothSolver:  Solving for Uy, Initial residual = 0.125432145205, Final residual = 0.00040301203954, No Iterations 2
smoothSolver:  Solving for Uz, Initial residual = 0.117851323407, Final residual = 0.000388962461128, No Iterations 2
GAMG:  Solving for p, Initial residual = 0.338150566187, Final residual = 0.0140836083557, No Iterations 5
time step continuity errors : sum local = 11.0400058667, global = 5.93278981816, cumulative = 12.9466807998
smoothSolver:  Solving for i, Initial residual = 0.116089054836, Final residual = 0.000521820122176, No Iterations 2
smoothSolver:  Solving for epsilon, Initial residual = 0.149566508373, Final residual = 0.000270852005465, No Iterations 2
smoothSolver:  Solving for k, Initial residual = 0.199155820226, Final residual = 0.000472830503171, No Iterations 2
ExecutionTime = 0.2 s  ClockTime = 0 s

GGI pair (GVOUTLET, RUINLET)
Area: 0.00469999625306 0.00469999625306 Diff = 0 or 0 % 
Flux: 0.0196179676969 0.0196179676969 Diff = -1.38777878078e-17 or 7.07401909425e-14 %
GGI pair (RUOUTLET, DTINLET)
Area: 0.00469999625293 0.00469999625293 Diff = 0 or 0 % 
Flux: 0.0212127209573 0.0212127209573 Diff = 6.93889390391e-18 or 3.2711003543e-14 %
Cyclic GGI pair (RUCYCLIC1, RUCYCLIC2)
Area: 0.00221580595009 0.00221580595006 Diff = 3.09218796402e-14 or 1.39551388238e-09 % 
Flux: 0.074219069048 0.0742190690442 Diff = -3.78258535605e-12 or 5.09651415003e-09 %
Cyclic GGI pair (DTCYCLIC1, DTCYCLIC2)
Area: 0.00349999999952 0.00349999999943 Diff = 8.85771490877e-14 or 2.53077568857e-09 % 
Flux: 0.00353826084338 0.00353826084365 Diff = 2.62942011914e-13 or 7.43139139686e-09 %
Time = 7

smoothSolver:  Solving for Ux, Initial residual = 0.088029127033, Final residual = 0.000189393163975, No Iterations 2
smoothSolver:  Solving for Uy, Initial residual = 0.0993041737532, Final residual = 0.000340011840294, No Iterations 2
smoothSolver:  Solving for Uz, Initial residual = 0.0903744975667, Final residual = 0.000300686990856, No Iterations 2
GAMG:  Solving for p, Initial residual = 0.328634954022, Final residual = 0.0150110813764, No Iterations 5
time step continuity errors : sum local = 14.4977811265, global = 7.90143930529, cumulative = 20.8481201051
smoothSolver:  Solving for i, Initial residual = 0.123284798785, Final residual = 0.000608461809854, No Iterations 2
smoothSolver:  Solving for epsilon, Initial residual = 0.174392133426, Final residual = 0.000324211727645, No Iterations 2
smoothSolver:  Solving for k, Initial residual = 0.185137094327, Final residual = 0.000438871454003, No Iterations 2
ExecutionTime = 0.22 s  ClockTime = 0 s

GGI pair (GVOUTLET, RUINLET)
Area: 0.00469999625306 0.00469999625306 Diff = 0 or 0 % 
Flux: 0.0212510334362 0.0212510334362 Diff = 3.46944695195e-18 or 1.63260152141e-14 %
GGI pair (RUOUTLET, DTINLET)
Area: 0.00469999625293 0.00469999625293 Diff = 0 or 0 % 
Flux: 0.0248802591487 0.0248802591487 Diff = -1.73472347598e-17 or 6.97228861489e-14 %
Cyclic GGI pair (RUCYCLIC1, RUCYCLIC2)
Area: 0.00221580595009 0.00221580595006 Diff = 3.09218796402e-14 or 1.39551388238e-09 % 
Flux: 0.0731843006178 0.0731843006136 Diff = -4.18887147191e-12 or 5.72372959302e-09 %
Cyclic GGI pair (DTCYCLIC1, DTCYCLIC2)
Area: 0.00349999999952 0.00349999999943 Diff = 8.85771490877e-14 or 2.53077568857e-09 % 
Flux: 0.00358210928271 0.00358210928295 Diff = 2.37730408276e-13 or 6.63660400935e-09 %
Time = 8

smoothSolver:  Solving for Ux, Initial residual = 0.0671733009748, Final residual = 0.00015075283913, No Iterations 2
smoothSolver:  Solving for Uy, Initial residual = 0.0758856599849, Final residual = 0.000267285751497, No Iterations 2
smoothSolver:  Solving for Uz, Initial residual = 0.065732515965, Final residual = 0.000204180220856, No Iterations 2
GAMG:  Solving for p, Initial residual = 0.324034179042, Final residual = 0.0141189769452, No Iterations 5
time step continuity errors : sum local = 17.3379040322, global = 9.75810913878, cumulative = 30.6062292439
smoothSolver:  Solving for i, Initial residual = 0.122337190496, Final residual = 0.000636318142666, No Iterations 2
smoothSolver:  Solving for epsilon, Initial residual = 0.175672003195, Final residual = 0.000333234324509, No Iterations 2
smoothSolver:  Solving for k, Initial residual = 0.164917814852, Final residual = 0.000395942503496, No Iterations 2
ExecutionTime = 0.25 s  ClockTime = 0 s

GGI pair (GVOUTLET, RUINLET)
Area: 0.00469999625306 0.00469999625306 Diff = 0 or 0 % 
Flux: 0.0223508334769 0.0223508334769 Diff = -1.38777878078e-17 or 6.20906948377e-14 %
GGI pair (RUOUTLET, DTINLET)
Area: 0.00469999625293 0.00469999625293 Diff = 0 or 0 % 
Flux: 0.0283286338216 0.0283286338216 Diff = 1.38777878078e-17 or 4.89885530492e-14 %
Cyclic GGI pair (RUCYCLIC1, RUCYCLIC2)
Area: 0.00221580595009 0.00221580595006 Diff = 3.09218796402e-14 or 1.39551388238e-09 % 
Flux: 0.0720512565282 0.0720512565236 Diff = -4.64391025634e-12 or 6.44528698055e-09 %
Cyclic GGI pair (DTCYCLIC1, DTCYCLIC2)
Area: 0.00349999999952 0.00349999999943 Diff = 8.85771490877e-14 or 2.53077568857e-09 % 
Flux: 0.0036158314637 0.00361583146397 Diff = 2.6416802773e-13 or 7.305872256e-09 %
Time = 9

smoothSolver:  Solving for Ux, Initial residual = 0.0504305402844, Final residual = 0.000117645477643, No Iterations 2
smoothSolver:  Solving for Uy, Initial residual = 0.0575483499568, Final residual = 0.000204575647939, No Iterations 2
smoothSolver:  Solving for Uz, Initial residual = 0.0563266776883, Final residual = 0.00017092188628, No Iterations 2
GAMG:  Solving for p, Initial residual = 0.303002345863, Final residual = 0.0122220672043, No Iterations 5
time step continuity errors : sum local = 18.4846659613, global = 11.0696642836, cumulative = 41.6758935274
smoothSolver:  Solving for i, Initial residual = 0.111240281948, Final residual = 0.000596392107015, No Iterations 2
smoothSolver:  Solving for epsilon, Initial residual = 0.164952765064, Final residual = 0.000307271019579, No Iterations 2
smoothSolver:  Solving for k, Initial residual = 0.144379139501, Final residual = 0.000345979779827, No Iterations 2
ExecutionTime = 0.28 s  ClockTime = 0 s

GGI pair (GVOUTLET, RUINLET)
Area: 0.00469999625306 0.00469999625306 Diff = 0 or 0 % 
Flux: 0.0230470630668 0.0230470630668 Diff = 1.73472347598e-17 or 7.52687433948e-14 %
GGI pair (RUOUTLET, DTINLET)
Area: 0.00469999625293 0.00469999625293 Diff = 0 or 0 % 
Flux: 0.0304322374424 0.0304322374424 Diff = 1.38777878078e-17 or 4.56022592295e-14 %
Cyclic GGI pair (RUCYCLIC1, RUCYCLIC2)
Area: 0.00221580595009 0.00221580595006 Diff = 3.09218796402e-14 or 1.39551388238e-09 % 
Flux: 0.0708726916937 0.0708726916886 Diff = -5.14457920708e-12 or 7.25890196088e-09 %
Cyclic GGI pair (DTCYCLIC1, DTCYCLIC2)
Area: 0.00349999999952 0.00349999999943 Diff = 8.85771490877e-14 or 2.53077568857e-09 % 
Flux: 0.00366269853277 0.00366269853309 Diff = 3.19935484355e-13 or 8.73496635043e-09 %
Time = 10

smoothSolver:  Solving for Ux, Initial residual = 0.0378931716675, Final residual = 8.91732782062e-05, No Iterations 2
smoothSolver:  Solving for Uy, Initial residual = 0.0437868232223, Final residual = 0.000152107614291, No Iterations 2
smoothSolver:  Solving for Uz, Initial residual = 0.0624566682928, Final residual = 0.000221362856376, No Iterations 2
GAMG:  Solving for p, Initial residual = 0.276439966251, Final residual = 0.00978630810003, No Iterations 5
time step continuity errors : sum local = 17.7318704992, global = 11.8345461256, cumulative = 53.510439653
smoothSolver:  Solving for i, Initial residual = 0.0939500961026, Final residual = 0.000517077058482, No Iterations 2
smoothSolver:  Solving for epsilon, Initial residual = 0.150908074079, Final residual = 0.000268595392237, No Iterations 2
smoothSolver:  Solving for k, Initial residual = 0.127107556512, Final residual = 0.000299247160288, No Iterations 2
ExecutionTime = 0.3 s  ClockTime = 0 s

GGI pair (GVOUTLET, RUINLET)
Area: 0.00469999625306 0.00469999625306 Diff = 0 or 0 % 
Flux: 0.0233228574779 0.0233228574779 Diff = -2.08166817117e-17 or 8.92544223256e-14 %
GGI pair (RUOUTLET, DTINLET)
Area: 0.00469999625293 0.00469999625293 Diff = 0 or 0 % 
Flux: 0.0312809641574 0.0312809641574 Diff = -6.93889390391e-18 or 2.21824809139e-14 %
Cyclic GGI pair (RUCYCLIC1, RUCYCLIC2)
Area: 0.00221580595009 0.00221580595006 Diff = 3.09218796402e-14 or 1.39551388238e-09 % 
Flux: 0.0696578913483 0.0696578913426 Diff = -5.66469093854e-12 or 8.13215965758e-09 %
Cyclic GGI pair (DTCYCLIC1, DTCYCLIC2)
Area: 0.00349999999952 0.00349999999943 Diff = 8.85771490877e-14 or 2.53077568857e-09 % 
Flux: 0.00368393197801 0.0036839319784 Diff = 3.83658382841e-13 or 1.04143720658e-08 %
Time = 11

smoothSolver:  Solving for Ux, Initial residual = 0.0289990389298, Final residual = 6.72038096473e-05, No Iterations 2
smoothSolver:  Solving for Uy, Initial residual = 0.0330234902506, Final residual = 0.00010922710658, No Iterations 2
smoothSolver:  Solving for Uz, Initial residual = 0.0762251502361, Final residual = 0.000301493440173, No Iterations 2
GAMG:  Solving for p, Initial residual = 0.248138995505, Final residual = 0.0105599303168, No Iterations 4
time step continuity errors : sum local = 16.9396171654, global = 11.9323965559, cumulative = 65.4428362089
smoothSolver:  Solving for i, Initial residual = 0.0805693397328, Final residual = 0.000452578484148, No Iterations 2
smoothSolver:  Solving for epsilon, Initial residual = 0.135722384217, Final residual = 0.000228661179694, No Iterations 2
smoothSolver:  Solving for k, Initial residual = 0.111586168897, Final residual = 0.000257372633829, No Iterations 2
ExecutionTime = 0.33 s  ClockTime = 0 s

GGI pair (GVOUTLET, RUINLET)
Area: 0.00469999625306 0.00469999625306 Diff = 0 or 0 % 
Flux: 0.0237179309534 0.0237179309534 Diff = -1.73472347598e-17 or 7.31397472816e-14 %
GGI pair (RUOUTLET, DTINLET)
Area: 0.00469999625293 0.00469999625293 Diff = 0 or 0 % 
Flux: 0.0310808645122 0.0310808645122 Diff = 1.04083408559e-17 or 3.34879387019e-14 %
Cyclic GGI pair (RUCYCLIC1, RUCYCLIC2)
Area: 0.00221580595009 0.00221580595006 Diff = 3.09218796402e-14 or 1.39551388238e-09 % 
Flux: 0.068556584636 0.0685565846298 Diff = -6.19616857822e-12 or 9.03803567684e-09 %
Cyclic GGI pair (DTCYCLIC1, DTCYCLIC2)
Area: 0.00349999999952 0.00349999999943 Diff = 8.85771490877e-14 or 2.53077568857e-09 % 
Flux: 0.00375660529571 0.00375660529616 Diff = 4.4516213632e-13 or 1.18501173607e-08 %
Time = 12

smoothSolver:  Solving for Ux, Initial residual = 0.0226518813105, Final residual = 5.20722889792e-05, No Iterations 2
smoothSolver:  Solving for Uy, Initial residual = 0.024243138032, Final residual = 7.40513915712e-05, No Iterations 2
smoothSolver:  Solving for Uz, Initial residual = 0.087234081382, Final residual = 0.000360504393855, No Iterations 2
GAMG:  Solving for p, Initial residual = 0.230239684431, Final residual = 0.00716883644578, No Iterations 4
time step continuity errors : sum local = 14.9803273592, global = 11.9938759946, cumulative = 77.4367122035
smoothSolver:  Solving for i, Initial residual = 0.0665481894545, Final residual = 0.000364064504448, No Iterations 2
smoothSolver:  Solving for epsilon, Initial residual = 0.121027111043, Final residual = 0.000189299922873, No Iterations 2
smoothSolver:  Solving for k, Initial residual = 0.0979141266899, Final residual = 0.000216851510736, No Iterations 2
ExecutionTime = 0.35 s  ClockTime = 0 s

GGI pair (GVOUTLET, RUINLET)
Area: 0.00469999625306 0.00469999625306 Diff = 0 or 0 % 
Flux: 0.0231995213826 0.0231995213826 Diff = 1.04083408559e-17 or 4.48644637285e-14 %
GGI pair (RUOUTLET, DTINLET)
Area: 0.00469999625293 0.00469999625293 Diff = 0 or 0 % 
Flux: 0.0300695321498 0.0300695321498 Diff = 1.38777878078e-17 or 4.61523236832e-14 %
Cyclic GGI pair (RUCYCLIC1, RUCYCLIC2)
Area: 0.00221580595009 0.00221580595006 Diff = 3.09218796402e-14 or 1.39551388238e-09 % 
Flux: 0.0674447042218 0.0674447042151 Diff = -6.69581057267e-12 or 9.92785223084e-09 %
Cyclic GGI pair (DTCYCLIC1, DTCYCLIC2)
Area: 0.00349999999952 0.00349999999943 Diff = 8.85771490877e-14 or 2.53077568857e-09 % 
Flux: 0.00379721436142 0.00379721436191 Diff = 4.84608880802e-13 or 1.27622207933e-08 %
Time = 13

smoothSolver:  Solving for Ux, Initial residual = 0.0190057871769, Final residual = 4.21786066033e-05, No Iterations 2
smoothSolver:  Solving for Uy, Initial residual = 0.0178999373142, Final residual = 4.81451417087e-05, No Iterations 2
smoothSolver:  Solving for Uz, Initial residual = 0.0925337291344, Final residual = 0.0003750683239, No Iterations 2
GAMG:  Solving for p, Initial residual = 0.216224561417, Final residual = 0.00646445507458, No Iterations 4
time step continuity errors : sum local = 14.2539684159, global = 11.6146549457, cumulative = 89.0513671492
smoothSolver:  Solving for i, Initial residual = 0.0593693387126, Final residual = 0.000297234721481, No Iterations 2
smoothSolver:  Solving for epsilon, Initial residual = 0.10741498462, Final residual = 0.000154606587112, No Iterations 2
smoothSolver:  Solving for k, Initial residual = 0.0862177460873, Final residual = 0.00018044935793, No Iterations 2
ExecutionTime = 0.38 s  ClockTime = 0 s

GGI pair (GVOUTLET, RUINLET)
Area: 0.00469999625306 0.00469999625306 Diff = 0 or 0 % 
Flux: 0.0226067265179 0.0226067265179 Diff = -4.16333634234e-17 or 1.84163608962e-13 %
GGI pair (RUOUTLET, DTINLET)
Area: 0.00469999625293 0.00469999625293 Diff = 0 or 0 % 
Flux: 0.028291887207 0.028291887207 Diff = -3.46944695195e-17 or 1.22630453266e-13 %
Cyclic GGI pair (RUCYCLIC1, RUCYCLIC2)
Area: 0.00221580595009 0.00221580595006 Diff = 3.09218796402e-14 or 1.39551388238e-09 % 
Flux: 0.0666079913802 0.066607991373 Diff = -7.21053772246e-12 or 1.08253342775e-08 %
Cyclic GGI pair (DTCYCLIC1, DTCYCLIC2)
Area: 0.00349999999952 0.00349999999943 Diff = 8.85771490877e-14 or 2.53077568857e-09 % 
Flux: 0.00387597213298 0.00387597213348 Diff = 4.93283365544e-13 or 1.27267005185e-08 %
Time = 14

smoothSolver:  Solving for Ux, Initial residual = 0.0175934539025, Final residual = 3.81952548036e-05, No Iterations 2
smoothSolver:  Solving for Uy, Initial residual = 0.0149723956019, Final residual = 3.84535907609e-05, No Iterations 2
smoothSolver:  Solving for Uz, Initial residual = 0.0902431458768, Final residual = 0.000343838591395, No Iterations 2
GAMG:  Solving for p, Initial residual = 0.199404173109, Final residual = 0.00823140145953, No Iterations 4
time step continuity errors : sum local = 13.6529334605, global = 10.7616373055, cumulative = 99.8130044547
smoothSolver:  Solving for i, Initial residual = 0.0543547449458, Final residual = 0.000242121737612, No Iterations 2
smoothSolver:  Solving for epsilon, Initial residual = 0.0951937103575, Final residual = 0.000126982641169, No Iterations 2
smoothSolver:  Solving for k, Initial residual = 0.0762635641309, Final residual = 0.00015002556769, No Iterations 2
ExecutionTime = 0.4 s  ClockTime = 0 s

GGI pair (GVOUTLET, RUINLET)
Area: 0.00469999625306 0.00469999625306 Diff = 0 or 0 % 
Flux: 0.0220693302393 0.0220693302393 Diff = 2.77555756156e-17 or 1.25765373551e-13 %
GGI pair (RUOUTLET, DTINLET)
Area: 0.00469999625293 0.00469999625293 Diff = 0 or 0 % 
Flux: 0.0258376899245 0.0258376899245 Diff = -3.46944695195e-17 or 1.34278527302e-13 %
Cyclic GGI pair (RUCYCLIC1, RUCYCLIC2)
Area: 0.00221580595009 0.00221580595006 Diff = 3.09218796402e-14 or 1.39551388238e-09 % 
Flux: 0.065970998182 0.0659709981743 Diff = -7.68519969885e-12 or 1.16493609474e-08 %
Cyclic GGI pair (DTCYCLIC1, DTCYCLIC2)
Area: 0.00349999999952 0.00349999999943 Diff = 8.85771490877e-14 or 2.53077568857e-09 % 
Flux: 0.00401309353669 0.00401309353714 Diff = 4.56929633019e-13 or 1.13859701709e-08 %
Time = 15

smoothSolver:  Solving for Ux, Initial residual = 0.0175020917639, Final residual = 3.77645948563e-05, No Iterations 2
smoothSolver:  Solving for Uy, Initial residual = 0.014499975302, Final residual = 3.66646007716e-05, No Iterations 2
smoothSolver:  Solving for Uz, Initial residual = 0.0818994544146, Final residual = 0.000282850582143, No Iterations 2
GAMG:  Solving for p, Initial residual = 0.186573621381, Final residual = 0.00639541695479, No Iterations 5
time step continuity errors : sum local = 11.9212404502, global = 8.92318651929, cumulative = 108.736190974
smoothSolver:  Solving for i, Initial residual = 0.0472499688666, Final residual = 0.00018465709836, No Iterations 2
smoothSolver:  Solving for epsilon, Initial residual = 0.0851156226284, Final residual = 0.000106499361389, No Iterations 2
smoothSolver:  Solving for k, Initial residual = 0.0681095417688, Final residual = 0.000126323420753, No Iterations 2
ExecutionTime = 0.43 s  ClockTime = 0 s

GGI pair (GVOUTLET, RUINLET)
Area: 0.00469999625306 0.00469999625306 Diff = 0 or 0 % 
Flux: 0.0212957038899 0.0212957038899 Diff = -2.77555756156e-17 or 1.30334154528e-13 %
GGI pair (RUOUTLET, DTINLET)
Area: 0.00469999625293 0.00469999625293 Diff = 0 or 0 % 
Flux: 0.0227802396838 0.0227802396838 Diff = 3.46944695195e-18 or 1.52300722034e-14 %
Cyclic GGI pair (RUCYCLIC1, RUCYCLIC2)
Area: 0.00221580595009 0.00221580595006 Diff = 3.09218796402e-14 or 1.39551388238e-09 % 
Flux: 0.0656036082393 0.0656036082311 Diff = -8.14007194982e-12 or 1.24079637817e-08 %
Cyclic GGI pair (DTCYCLIC1, DTCYCLIC2)
Area: 0.00349999999952 0.00349999999943 Diff = 8.85771490877e-14 or 2.53077568857e-09 % 
Flux: 0.00426302724328 0.00426302724362 Diff = 3.89381235588e-13 or 9.13391384496e-09 %
Time = 16

smoothSolver:  Solving for Ux, Initial residual = 0.0180167634518, Final residual = 4.02173860624e-05, No Iterations 2
smoothSolver:  Solving for Uy, Initial residual = 0.0148305130047, Final residual = 3.68263127072e-05, No Iterations 2
smoothSolver:  Solving for Uz, Initial residual = 0.0735161570735, Final residual = 0.000231338896533, No Iterations 2
GAMG:  Solving for p, Initial residual = 0.170363317151, Final residual = 0.00682470742889, No Iterations 5
time step continuity errors : sum local = 11.9477406179, global = 6.72112373654, cumulative = 115.45731471
smoothSolver:  Solving for i, Initial residual = 0.0482051583398, Final residual = 0.000166002167909, No Iterations 2
smoothSolver:  Solving for epsilon, Initial residual = 0.0763748943619, Final residual = 9.005723495e-05, No Iterations 2
smoothSolver:  Solving for k, Initial residual = 0.0610507993047, Final residual = 0.000106930848741, No Iterations 2
ExecutionTime = 0.45 s  ClockTime = 1 s

GGI pair (GVOUTLET, RUINLET)
Area: 0.00469999625306 0.00469999625306 Diff = 0 or 0 % 
Flux: 0.0209111389389 0.0209111389389 Diff = 1.73472347598e-17 or 8.29569102405e-14 %
GGI pair (RUOUTLET, DTINLET)
Area: 0.00469999625293 0.00469999625293 Diff = 0 or 0 % 
Flux: 0.0208415309475 0.0208415309475 Diff = -2.08166817117e-17 or 9.98807705835e-14 %
Cyclic GGI pair (RUCYCLIC1, RUCYCLIC2)
Area: 0.00221580595009 0.00221580595006 Diff = 3.09218796402e-14 or 1.39551388238e-09 % 
Flux: 0.0657068438492 0.0657068438406 Diff = -8.54667725481e-12 or 1.3007286234e-08 %
Cyclic GGI pair (DTCYCLIC1, DTCYCLIC2)
Area: 0.00349999999952 0.00349999999943 Diff = 8.85771490877e-14 or 2.53077568857e-09 % 
Flux: 0.00445407896932 0.00445407896959 Diff = 2.98079269601e-13 or 6.69227626304e-09 %
Time = 17

smoothSolver:  Solving for Ux, Initial residual = 0.0186769756245, Final residual = 4.23404985648e-05, No Iterations 2
smoothSolver:  Solving for Uy, Initial residual = 0.0149306668046, Final residual = 3.57190715592e-05, No Iterations 2
smoothSolver:  Solving for Uz, Initial residual = 0.0724511744316, Final residual = 0.000215014296966, No Iterations 2
GAMG:  Solving for p, Initial residual = 0.150301246593, Final residual = 0.00626619510729, No Iterations 5
time step continuity errors : sum local = 12.1843724955, global = 4.15929200585, cumulative = 119.616606716
smoothSolver:  Solving for i, Initial residual = 0.0498641143817, Final residual = 0.000160047001841, No Iterations 2
smoothSolver:  Solving for epsilon, Initial residual = 0.0693955900592, Final residual = 7.70815524042e-05, No Iterations 2
smoothSolver:  Solving for k, Initial residual = 0.0552790666444, Final residual = 9.1404828489e-05, No Iterations 2
ExecutionTime = 0.48 s  ClockTime = 1 s

GGI pair (GVOUTLET, RUINLET)
Area: 0.00469999625306 0.00469999625306 Diff = 0 or 0 % 
Flux: 0.020988969275 0.020988969275 Diff = -2.16840434497e-17 or 1.03311616524e-13 %
GGI pair (RUOUTLET, DTINLET)
Area: 0.00469999625293 0.00469999625293 Diff = 0 or 0 % 
Flux: 0.0201757793531 0.0201757793531 Diff = -8.67361737988e-18 or 4.29902470089e-14 %
Cyclic GGI pair (RUCYCLIC1, RUCYCLIC2)
Area: 0.00221580595009 0.00221580595006 Diff = 3.09218796402e-14 or 1.39551388238e-09 % 
Flux: 0.0660735468546 0.0660735468457 Diff = -8.86263284983e-12 or 1.34132845469e-08 %
Cyclic GGI pair (DTCYCLIC1, DTCYCLIC2)
Area: 0.00349999999952 0.00349999999943 Diff = 8.85771490877e-14 or 2.53077568857e-09 % 
Flux: 0.00434915298085 0.00434915298102 Diff = 1.58953579465e-13 or 3.65481693022e-09 %
Time = 18

smoothSolver:  Solving for Ux, Initial residual = 0.0191916229142, Final residual = 4.34265185288e-05, No Iterations 2
smoothSolver:  Solving for Uy, Initial residual = 0.0145061627305, Final residual = 3.36727655503e-05, No Iterations 2
smoothSolver:  Solving for Uz, Initial residual = 0.0719457635528, Final residual = 0.000193190428915, No Iterations 2
GAMG:  Solving for p, Initial residual = 0.123871977496, Final residual = 0.00491611569638, No Iterations 5
time step continuity errors : sum local = 11.9007853951, global = 1.21419134272, cumulative = 120.830798059
smoothSolver:  Solving for i, Initial residual = 0.0503876391567, Final residual = 0.000156776598559, No Iterations 2
smoothSolver:  Solving for epsilon, Initial residual = 0.0637386407895, Final residual = 6.83495635197e-05, No Iterations 2
smoothSolver:  Solving for k, Initial residual = 0.0506864446781, Final residual = 8.00634588869e-05, No Iterations 2
ExecutionTime = 0.5 s  ClockTime = 1 s

GGI pair (GVOUTLET, RUINLET)
Area: 0.00469999625306 0.00469999625306 Diff = 0 or 0 % 
Flux: 0.0208506148275 0.0208506148275 Diff = 3.80554962542e-17 or 1.82514983703e-13 %
GGI pair (RUOUTLET, DTINLET)
Area: 0.00469999625293 0.00469999625293 Diff = 0 or 0 % 
Flux: 0.0195162561659 0.0195162561659 Diff = 2.51534904017e-17 or 1.28884813705e-13 %
Cyclic GGI pair (RUCYCLIC1, RUCYCLIC2)
Area: 0.00221580595009 0.00221580595006 Diff = 3.09218796402e-14 or 1.39551388238e-09 % 
Flux: 0.0666616494941 0.066661649485 Diff = -9.13970288341e-12 or 1.37105861508e-08 %
Cyclic GGI pair (DTCYCLIC1, DTCYCLIC2)
Area: 0.00349999999952 0.00349999999943 Diff = 8.85771490877e-14 or 2.53077568857e-09 % 
Flux: 0.00375854904071 0.00375854904068 Diff = -2.64384868165e-14 or 7.03422691313e-10 %
Time = 19

smoothSolver:  Solving for Ux, Initial residual = 0.0193955187842, Final residual = 4.24945844562e-05, No Iterations 2
smoothSolver:  Solving for Uy, Initial residual = 0.0135869548191, Final residual = 3.11746415539e-05, No Iterations 2
smoothSolver:  Solving for Uz, Initial residual = 0.0706966283179, Final residual = 0.000170055764008, No Iterations 2
GAMG:  Solving for p, Initial residual = 0.103312580547, Final residual = 0.00365509084409, No Iterations 5
time step continuity errors : sum local = 11.3534183934, global = -1.56842686596, cumulative = 119.262371193
smoothSolver:  Solving for i, Initial residual = 0.0498225900037, Final residual = 0.00015839986287, No Iterations 2
smoothSolver:  Solving for epsilon, Initial residual = 0.0589981854396, Final residual = 6.180676281e-05, No Iterations 2
smoothSolver:  Solving for k, Initial residual = 0.0470776238376, Final residual = 7.18833411248e-05, No Iterations 2
ExecutionTime = 0.53 s  ClockTime = 1 s

GGI pair (GVOUTLET, RUINLET)
Area: 0.00469999625306 0.00469999625306 Diff = 0 or 0 % 
Flux: 0.0209149501579 0.0209149501579 Diff = -3.29597460436e-17 or 1.57589407552e-13 %
GGI pair (RUOUTLET, DTINLET)
Area: 0.00469999625293 0.00469999625293 Diff = 0 or 0 % 
Flux: 0.0194119164577 0.0194119164577 Diff = 2.27682456222e-17 or 1.17290045379e-13 %
Cyclic GGI pair (RUCYCLIC1, RUCYCLIC2)
Area: 0.00221580595009 0.00221580595006 Diff = 3.09218796402e-14 or 1.39551388238e-09 % 
Flux: 0.0674414274109 0.0674414274016 Diff = -9.34838317868e-12 or 1.38614847543e-08 %
Cyclic GGI pair (DTCYCLIC1, DTCYCLIC2)
Area: 0.00349999999952 0.00349999999943 Diff = 8.85771490877e-14 or 2.53077568857e-09 % 
Flux: 0.00329269981297 0.00329269981277 Diff = -2.03788808745e-13 or 6.18910985878e-09 %
Time = 20

smoothSolver:  Solving for Ux, Initial residual = 0.0192538308627, Final residual = 3.98860783439e-05, No Iterations 2
smoothSolver:  Solving for Uy, Initial residual = 0.0124153002429, Final residual = 2.85747132433e-05, No Iterations 2
smoothSolver:  Solving for Uz, Initial residual = 0.0707871278741, Final residual = 0.00014641072897, No Iterations 2
GAMG:  Solving for p, Initial residual = 0.0991035409577, Final residual = 0.00425601118002, No Iterations 4
time step continuity errors : sum local = 11.2455073532, global = -4.07510348955, cumulative = 115.187267704
smoothSolver:  Solving for i, Initial residual = 0.0509655561775, Final residual = 0.000167616491827, No Iterations 2
smoothSolver:  Solving for epsilon, Initial residual = 0.05524147196, Final residual = 5.61351350468e-05, No Iterations 2
smoothSolver:  Solving for k, Initial residual = 0.0441137299307, Final residual = 6.50909330682e-05, No Iterations 2
ExecutionTime = 0.7 s  ClockTime = 1 s

GGI pair (GVOUTLET, RUINLET)
Area: 0.00469999625306 0.00469999625306 Diff = 0 or 0 % 
Flux: 0.021113879526 0.021113879526 Diff = -3.46944695195e-18 or 1.64320675775e-14 %
GGI pair (RUOUTLET, DTINLET)
Area: 0.00469999625293 0.00469999625293 Diff = 0 or 0 % 
Flux: 0.0197383449568 0.0197383449568 Diff = 3.55618312575e-17 or 1.80166226375e-13 %
Cyclic GGI pair (RUCYCLIC1, RUCYCLIC2)
Area: 0.00221580595009 0.00221580595006 Diff = 3.09218796402e-14 or 1.39551388238e-09 % 
Flux: 0.0681180628141 0.0681180628047 Diff = -9.49178236009e-12 or 1.39343104721e-08 %
Cyclic GGI pair (DTCYCLIC1, DTCYCLIC2)
Area: 0.00349999999952 0.00349999999943 Diff = 8.85771490877e-14 or 2.53077568857e-09 % 
Flux: 0.00365764684915 0.00365764684873 Diff = -4.20787536759e-13 or 1.15043237938e-08 %
Time = 21

smoothSolver:  Solving for Ux, Initial residual = 0.0188403530484, Final residual = 3.63566678126e-05, No Iterations 2
smoothSolver:  Solving for Uy, Initial residual = 0.0112597910587, Final residual = 2.68471296901e-05, No Iterations 2
smoothSolver:  Solving for Uz, Initial residual = 0.0723970632018, Final residual = 0.000130885031538, No Iterations 2
GAMG:  Solving for p, Initial residual = 0.117321876191, Final residual = 0.00473994997647, No Iterations 4
time step continuity errors : sum local = 10.0847702875, global = -6.59721812279, cumulative = 108.590049581
smoothSolver:  Solving for i, Initial residual = 0.04839518226, Final residual = 0.000168180987382, No Iterations 2
smoothSolver:  Solving for epsilon, Initial residual = 0.0519191789978, Final residual = 5.2736391975e-05, No Iterations 2
smoothSolver:  Solving for k, Initial residual = 0.0415859892613, Final residual = 6.08103680758e-05, No Iterations 2
ExecutionTime = 0.73 s  ClockTime = 1 s

GGI pair (GVOUTLET, RUINLET)
Area: 0.00469999625306 0.00469999625306 Diff = 0 or 0 % 
Flux: 0.0214391030953 0.0214391030953 Diff = 3.46944695195e-17 or 1.61827989564e-13 %
GGI pair (RUOUTLET, DTINLET)
Area: 0.00469999625293 0.00469999625293 Diff = 0 or 0 % 
Flux: 0.0202010402317 0.0202010402317 Diff = -1.04083408559e-17 or 5.15237865798e-14 %
Cyclic GGI pair (RUCYCLIC1, RUCYCLIC2)
Area: 0.00221580595009 0.00221580595006 Diff = 3.09218796402e-14 or 1.39551388238e-09 % 
Flux: 0.0688609981039 0.0688609980943 Diff = -9.56089374338e-12 or 1.38843380239e-08 %
Cyclic GGI pair (DTCYCLIC1, DTCYCLIC2)
Area: 0.00349999999952 0.00349999999943 Diff = 8.85771490877e-14 or 2.53077568857e-09 % 
Flux: 0.00404212218262 0.00404212218202 Diff = -5.93721252717e-13 or 1.46883549258e-08 %
Time = 22

smoothSolver:  Solving for Ux, Initial residual = 0.0179325412635, Final residual = 3.27809614756e-05, No Iterations 2
smoothSolver:  Solving for Uy, Initial residual = 0.01058641931, Final residual = 2.60149010257e-05, No Iterations 2
smoothSolver:  Solving for Uz, Initial residual = 0.0751364631402, Final residual = 0.000123707855784, No Iterations 2
GAMG:  Solving for p, Initial residual = 0.139186793861, Final residual = 0.00593836408481, No Iterations 4
time step continuity errors : sum local = 10.0625834347, global = -8.88104620933, cumulative = 99.7090033714
smoothSolver:  Solving for i, Initial residual = 0.0515713929913, Final residual = 0.000177530111138, No Iterations 2
smoothSolver:  Solving for epsilon, Initial residual = 0.0490090062072, Final residual = 5.02370468398e-05, No Iterations 2
smoothSolver:  Solving for k, Initial residual = 0.0393697072313, Final residual = 5.75854606456e-05, No Iterations 2
ExecutionTime = 0.75 s  ClockTime = 1 s

GGI pair (GVOUTLET, RUINLET)
Area: 0.00469999625306 0.00469999625306 Diff = 0 or 0 % 
Flux: 0.0218180188184 0.0218180188184 Diff = -1.04083408559e-17 or 4.7705251987e-14 %
GGI pair (RUOUTLET, DTINLET)
Area: 0.00469999625293 0.00469999625293 Diff = 0 or 0 % 
Flux: 0.0213143006316 0.0213143006316 Diff = -2.08166817117e-17 or 9.76653284172e-14 %
Cyclic GGI pair (RUCYCLIC1, RUCYCLIC2)
Area: 0.00221580595009 0.00221580595006 Diff = 3.09218796402e-14 or 1.39551388238e-09 % 
Flux: 0.0695413633133 0.0695413633037 Diff = -9.586359484e-12 or 1.37851187081e-08 %
Cyclic GGI pair (DTCYCLIC1, DTCYCLIC2)
Area: 0.00349999999952 0.00349999999943 Diff = 8.85771490877e-14 or 2.53077568857e-09 % 
Flux: 0.00435376504248 0.00435376504169 Diff = -7.85931215941e-13 or 1.80517599887e-08 %
Time = 23

smoothSolver:  Solving for Ux, Initial residual = 0.0166364750865, Final residual = 2.91444288127e-05, No Iterations 2
smoothSolver:  Solving for Uy, Initial residual = 0.0103405081217, Final residual = 2.49940675583e-05, No Iterations 2
smoothSolver:  Solving for Uz, Initial residual = 0.0745849795487, Final residual = 0.000115714144714, No Iterations 2
GAMG:  Solving for p, Initial residual = 0.194351420936, Final residual = 0.00834435195696, No Iterations 4
time step continuity errors : sum local = 11.2191597008, global = -10.8577816869, cumulative = 88.8512216845
smoothSolver:  Solving for i, Initial residual = 0.0612250203432, Final residual = 0.000191169475163, No Iterations 2
smoothSolver:  Solving for epsilon, Initial residual = 0.0463296828111, Final residual = 4.82985629673e-05, No Iterations 2
smoothSolver:  Solving for k, Initial residual = 0.0373601415234, Final residual = 5.50670660322e-05, No Iterations 2
ExecutionTime = 0.78 s  ClockTime = 1 s

GGI pair (GVOUTLET, RUINLET)
Area: 0.00469999625306 0.00469999625306 Diff = 0 or 0 % 
Flux: 0.0221263406586 0.0221263406586 Diff = 4.33680868994e-18 or 1.96002075393e-14 %
GGI pair (RUOUTLET, DTINLET)
Area: 0.00469999625293 0.00469999625293 Diff = 0 or 0 % 
Flux: 0.0228660561043 0.0228660561043 Diff = -4.51028103754e-17 or 1.97247877683e-13 %
Cyclic GGI pair (RUCYCLIC1, RUCYCLIC2)
Area: 0.00221580595009 0.00221580595006 Diff = 3.09218796402e-14 or 1.39551388238e-09 % 
Flux: 0.0701560453168 0.0701560453072 Diff = -9.59106405407e-12 or 1.36710443281e-08 %
Cyclic GGI pair (DTCYCLIC1, DTCYCLIC2)
Area: 0.00349999999952 0.00349999999943 Diff = 8.85771490877e-14 or 2.53077568857e-09 % 
Flux: 0.00470305308982 0.00470305308888 Diff = -9.34996004232e-13 or 1.98806176833e-08 %
Time = 24

smoothSolver:  Solving for Ux, Initial residual = 0.0150982201091, Final residual = 2.56674218784e-05, No Iterations 2
smoothSolver:  Solving for Uy, Initial residual = 0.01009389833, Final residual = 2.38654465373e-05, No Iterations 2
smoothSolver:  Solving for Uz, Initial residual = 0.0698413315199, Final residual = 0.000105624366694, No Iterations 2
GAMG:  Solving for p, Initial residual = 0.253459891059, Final residual = 0.0108874650939, No Iterations 4
time step continuity errors : sum local = 12.825940152, global = -12.5489580242, cumulative = 76.3022636603
smoothSolver:  Solving for i, Initial residual = 0.0753646654616, Final residual = 0.000216649153652, No Iterations 2
smoothSolver:  Solving for epsilon, Initial residual = 0.0437770952603, Final residual = 4.6435314153e-05, No Iterations 2
smoothSolver:  Solving for k, Initial residual = 0.0354539446336, Final residual = 5.27798720108e-05, No Iterations 2
ExecutionTime = 0.81 s  ClockTime = 1 s

GGI pair (GVOUTLET, RUINLET)
Area: 0.00469999625306 0.00469999625306 Diff = 0 or 0 % 
Flux: 0.0223425044655 0.0223425044655 Diff = -1.38777878078e-17 or 6.21138414865e-14 %
GGI pair (RUOUTLET, DTINLET)
Area: 0.00469999625293 0.00469999625293 Diff = 0 or 0 % 
Flux: 0.0245594743012 0.0245594743012 Diff = -3.46944695195e-17 or 1.41267150486e-13 %
Cyclic GGI pair (RUCYCLIC1, RUCYCLIC2)
Area: 0.00221580595009 0.00221580595006 Diff = 3.09218796402e-14 or 1.39551388238e-09 % 
Flux: 0.0706046399677 0.0706046399581 Diff = -9.57779688893e-12 or 1.35653930015e-08 %
Cyclic GGI pair (DTCYCLIC1, DTCYCLIC2)
Area: 0.00349999999952 0.00349999999943 Diff = 8.85771490877e-14 or 2.53077568857e-09 % 
Flux: 0.00505336719145 0.00505336719041 Diff = -1.04030933173e-12 or 2.0586458342e-08 %
Time = 25

smoothSolver:  Solving for Ux, Initial residual = 0.013574640424, Final residual = 2.26117495848e-05, No Iterations 2
smoothSolver:  Solving for Uy, Initial residual = 0.00973416454749, Final residual = 2.23571516584e-05, No Iterations 2
smoothSolver:  Solving for Uz, Initial residual = 0.0619659840034, Final residual = 9.41642600825e-05, No Iterations 2
GAMG:  Solving for p, Initial residual = 0.306792777452, Final residual = 0.0133879832075, No Iterations 4
time step continuity errors : sum local = 14.1829034583, global = -13.9050968112, cumulative = 62.3971668491
smoothSolver:  Solving for i, Initial residual = 0.0890354664381, Final residual = 0.000241691049251, No Iterations 2
smoothSolver:  Solving for epsilon, Initial residual = 0.0413589984962, Final residual = 4.45414739252e-05, No Iterations 2
smoothSolver:  Solving for k, Initial residual = 0.0336621565332, Final residual = 5.04938383163e-05, No Iterations 2
ExecutionTime = 0.83 s  ClockTime = 1 s

GGI pair (GVOUTLET, RUINLET)
Area: 0.00469999625306 0.00469999625306 Diff = 0 or 0 % 
Flux: 0.0224561771778 0.0224561771778 Diff = -6.93889390391e-18 or 3.08997112419e-14 %
GGI pair (RUOUTLET, DTINLET)
Area: 0.00469999625293 0.00469999625293 Diff = 0 or 0 % 
Flux: 0.0260961948802 0.0260961948802 Diff = 3.46944695195e-17 or 1.3294838454e-13 %
Cyclic GGI pair (RUCYCLIC1, RUCYCLIC2)
Area: 0.00221580595009 0.00221580595006 Diff = 3.09218796402e-14 or 1.39551388238e-09 % 
Flux: 0.0708778610513 0.0708778610418 Diff = -9.51040635133e-12 or 1.34180211003e-08 %
Cyclic GGI pair (DTCYCLIC1, DTCYCLIC2)
Area: 0.00349999999952 0.00349999999943 Diff = 8.85771490877e-14 or 2.53077568857e-09 % 
Flux: 0.0053368788032 0.00533687880206 Diff = -1.14455667166e-12 or 2.1446180696e-08 %
Time = 26

smoothSolver:  Solving for Ux, Initial residual = 0.0123798651454, Final residual = 2.06036110532e-05, No Iterations 2
smoothSolver:  Solving for Uy, Initial residual = 0.00925150904013, Final residual = 2.00545502995e-05, No Iterations 2
smoothSolver:  Solving for Uz, Initial residual = 0.0533917867826, Final residual = 8.20309857376e-05, No Iterations 2
GAMG:  Solving for p, Initial residual = 0.352966898896, Final residual = 0.0158396024485, No Iterations 4
time step continuity errors : sum local = 15.1058541214, global = -14.8157529755, cumulative = 47.5814138736
smoothSolver:  Solving for i, Initial residual = 0.0906004517633, Final residual = 0.000236251371653, No Iterations 2
smoothSolver:  Solving for epsilon, Initial residual = 0.0390899187738, Final residual = 4.27209295025e-05, No Iterations 2
smoothSolver:  Solving for k, Initial residual = 0.03200066065, Final residual = 4.83576776811e-05, No Iterations 2
ExecutionTime = 0.86 s  ClockTime = 1 s

GGI pair (GVOUTLET, RUINLET)
Area: 0.00469999625306 0.00469999625306 Diff = 0 or 0 % 
Flux: 0.0225170755656 0.0225170755656 Diff = 3.94649590785e-17 or 1.75266805689e-13 %
GGI pair (RUOUTLET, DTINLET)
Area: 0.00469999625293 0.00469999625293 Diff = 0 or 0 % 
Flux: 0.0272852414627 0.0272852414627 Diff = 4.16333634234e-17 or 1.52585651405e-13 %
Cyclic GGI pair (RUCYCLIC1, RUCYCLIC2)
Area: 0.00221580595009 0.00221580595006 Diff = 3.09218796402e-14 or 1.39551388238e-09 % 
Flux: 0.0709509485348 0.0709509485254 Diff = -9.47297795761e-12 or 1.33514465321e-08 %
Cyclic GGI pair (DTCYCLIC1, DTCYCLIC2)
Area: 0.00349999999952 0.00349999999943 Diff = 8.85771490877e-14 or 2.53077568857e-09 % 
Flux: 0.00548874097103 0.00548874096976 Diff = -1.27469129002e-12 or 2.32237465158e-08 %
Time = 27

smoothSolver:  Solving for Ux, Initial residual = 0.0117095901325, Final residual = 2.02661276908e-05, No Iterations 2
smoothSolver:  Solving for Uy, Initial residual = 0.00865543336391, Final residual = 1.74049620385e-05, No Iterations 2
smoothSolver:  Solving for Uz, Initial residual = 0.0455705529441, Final residual = 7.31611907212e-05, No Iterations 2
GAMG:  Solving for p, Initial residual = 0.389949698063, Final residual = 0.0180841271889, No Iterations 4
time step continuity errors : sum local = 15.6588197288, global = -15.2755480871, cumulative = 32.3058657865
smoothSolver:  Solving for i, Initial residual = 0.0825016167774, Final residual = 0.000210024648537, No Iterations 2
smoothSolver:  Solving for epsilon, Initial residual = 0.037031841626, Final residual = 4.0986658805e-05, No Iterations 2
smoothSolver:  Solving for k, Initial residual = 0.0304685669793, Final residual = 4.64359332968e-05, No Iterations 2
ExecutionTime = 0.88 s  ClockTime = 1 s

GGI pair (GVOUTLET, RUINLET)
Area: 0.00469999625306 0.00469999625306 Diff = 0 or 0 % 
Flux: 0.022499837205 0.022499837205 Diff = 1.38777878078e-17 or 6.16795031954e-14 %
GGI pair (RUOUTLET, DTINLET)
Area: 0.00469999625293 0.00469999625293 Diff = 0 or 0 % 
Flux: 0.0280938833533 0.0280938833533 Diff = -1.04083408559e-17 or 3.70484234059e-14 %
Cyclic GGI pair (RUCYCLIC1, RUCYCLIC2)
Area: 0.00221580595009 0.00221580595006 Diff = 3.09218796402e-14 or 1.39551388238e-09 % 
Flux: 0.0708094827952 0.0708094827858 Diff = -9.42912414814e-12 or 1.33161884199e-08 %
Cyclic GGI pair (DTCYCLIC1, DTCYCLIC2)
Area: 0.00349999999952 0.00349999999943 Diff = 8.85771490877e-14 or 2.53077568857e-09 % 
Flux: 0.00553387683431 0.0055338768329 Diff = -1.41184980373e-12 or 2.55128519482e-08 %
Time = 28

smoothSolver:  Solving for Ux, Initial residual = 0.0113889775403, Final residual = 2.11369096229e-05, No Iterations 2
smoothSolver:  Solving for Uy, Initial residual = 0.00800856266974, Final residual = 1.48861081239e-05, No Iterations 2
smoothSolver:  Solving for Uz, Initial residual = 0.0413594116093, Final residual = 7.0979966137e-05, No Iterations 2
GAMG:  Solving for p, Initial residual = 0.429193950821, Final residual = 0.0205882506673, No Iterations 4
time step continuity errors : sum local = 15.9475598649, global = -15.3338778703, cumulative = 16.9719879162
smoothSolver:  Solving for i, Initial residual = 0.0739821505581, Final residual = 0.000187918334018, No Iterations 2
smoothSolver:  Solving for epsilon, Initial residual = 0.0351865931456, Final residual = 3.94428383964e-05, No Iterations 2
smoothSolver:  Solving for k, Initial residual = 0.0290806476431, Final residual = 4.46871604269e-05, No Iterations 2
ExecutionTime = 0.91 s  ClockTime = 1 s

GGI pair (GVOUTLET, RUINLET)
Area: 0.00469999625306 0.00469999625306 Diff = 0 or 0 % 
Flux: 0.0224414113959 0.0224414113959 Diff = 2.40692882292e-17 or 1.07253896845e-13 %
GGI pair (RUOUTLET, DTINLET)
Area: 0.00469999625293 0.00469999625293 Diff = 0 or 0 % 
Flux: 0.028524841261 0.028524841261 Diff = -1.38777878078e-17 or 4.86515864569e-14 %
Cyclic GGI pair (RUCYCLIC1, RUCYCLIC2)
Area: 0.00221580595009 0.00221580595006 Diff = 3.09218796402e-14 or 1.39551388238e-09 % 
Flux: 0.0704487752575 0.0704487752481 Diff = -9.44930245161e-12 or 1.3413011677e-08 %
Cyclic GGI pair (DTCYCLIC1, DTCYCLIC2)
Area: 0.00349999999952 0.00349999999943 Diff = 8.85771490877e-14 or 2.53077568857e-09 % 
Flux: 0.00556202789109 0.00556202788955 Diff = -1.54506876043e-12 or 2.77788747321e-08 %
Time = 29

smoothSolver:  Solving for Ux, Initial residual = 0.0111214517863, Final residual = 2.17106283827e-05, No Iterations 2
smoothSolver:  Solving for Uy, Initial residual = 0.00739297060422, Final residual = 1.31749018426e-05, No Iterations 2
smoothSolver:  Solving for Uz, Initial residual = 0.0397500039978, Final residual = 7.45948269394e-05, No Iterations 2
GAMG:  Solving for p, Initial residual = 0.486307071101, Final residual = 0.0236725731795, No Iterations 4
time step continuity errors : sum local = 16.088247876, global = -15.0558767556, cumulative = 1.91611116059
smoothSolver:  Solving for i, Initial residual = 0.0664692222217, Final residual = 0.000171581797059, No Iterations 2
smoothSolver:  Solving for epsilon, Initial residual = 0.0335863266015, Final residual = 3.80580043593e-05, No Iterations 2
smoothSolver:  Solving for k, Initial residual = 0.0278471419602, Final residual = 4.32109272151e-05, No Iterations 2
ExecutionTime = 0.93 s  ClockTime = 1 s

GGI pair (GVOUTLET, RUINLET)
Area: 0.00469999625306 0.00469999625306 Diff = 0 or 0 % 
Flux: 0.0223434284344 0.0223434284344 Diff = -3.46944695195e-17 or 1.55278182224e-13 %
GGI pair (RUOUTLET, DTINLET)
Area: 0.00469999625293 0.00469999625293 Diff = 0 or 0 % 
Flux: 0.0285425228872 0.0285425228872 Diff = -6.93889390391e-18 or 2.43107237974e-14 %
Cyclic GGI pair (RUCYCLIC1, RUCYCLIC2)
Area: 0.00221580595009 0.00221580595006 Diff = 3.09218796402e-14 or 1.39551388238e-09 % 
Flux: 0.0698709451021 0.0698709450926 Diff = -9.49378076154e-12 or 1.3587594597e-08 %
Cyclic GGI pair (DTCYCLIC1, DTCYCLIC2)
Area: 0.00349999999952 0.00349999999943 Diff = 8.85771490877e-14 or 2.53077568857e-09 % 
Flux: 0.00559697209875 0.00559697209709 Diff = -1.66251561129e-12 or 2.97038395396e-08 %
Time = 30

smoothSolver:  Solving for Ux, Initial residual = 0.0107837606226, Final residual = 2.1474355322e-05, No Iterations 2
smoothSolver:  Solving for Uy, Initial residual = 0.00677573147304, Final residual = 1.20392799182e-05, No Iterations 2
smoothSolver:  Solving for Uz, Initial residual = 0.038279010364, Final residual = 7.7831714397e-05, No Iterations 2
GAMG:  Solving for p, Initial residual = 0.527176840237, Final residual = 0.024552805645, No Iterations 4
time step continuity errors : sum local = 15.9914292426, global = -14.485054984, cumulative = -12.5689438234
smoothSolver:  Solving for i, Initial residual = 0.0600750403576, Final residual = 0.000159605679878, No Iterations 2
smoothSolver:  Solving for epsilon, Initial residual = 0.0322072947614, Final residual = 3.67790001022e-05, No Iterations 2
smoothSolver:  Solving for k, Initial residual = 0.0267704824699, Final residual = 4.20015561918e-05, No Iterations 2
ExecutionTime = 0.96 s  ClockTime = 1 s

GGI pair (GVOUTLET, RUINLET)
Area: 0.00469999625306 0.00469999625306 Diff = 0 or 0 % 
Flux: 0.0222863113249 0.0222863113249 Diff = 6.83047368666e-18 or 3.0648740328e-14 %
GGI pair (RUOUTLET, DTINLET)
Area: 0.00469999625293 0.00469999625293 Diff = 0 or 0 % 
Flux: 0.0281428070102 0.0281428070102 Diff = -1.73472347598e-17 or 6.16400302695e-14 %
Cyclic GGI pair (RUCYCLIC1, RUCYCLIC2)
Area: 0.00221580595009 0.00221580595006 Diff = 3.09218796402e-14 or 1.39551388238e-09 % 
Flux: 0.0691328541465 0.069132854137 Diff = -9.52778134167e-12 or 1.37818428869e-08 %
Cyclic GGI pair (DTCYCLIC1, DTCYCLIC2)
Area: 0.00349999999952 0.00349999999943 Diff = 8.85771490877e-14 or 2.53077568857e-09 % 
Flux: 0.00564051224413 0.00564051224236 Diff = -1.76335248486e-12 or 3.12622756328e-08 %
Time = 31

smoothSolver:  Solving for Ux, Initial residual = 0.010385709942, Final residual = 2.0351438088e-05, No Iterations 2
smoothSolver:  Solving for Uy, Initial residual = 0.00630971800629, Final residual = 1.10515827263e-05, No Iterations 2
smoothSolver:  Solving for Uz, Initial residual = 0.0361006956127, Final residual = 7.8441868599e-05, No Iterations 2
GAMG:  Solving for p, Initial residual = 0.468684920922, Final residual = 0.0198439496275, No Iterations 4
time step continuity errors : sum local = 15.5077169525, global = -13.6591507256, cumulative = -26.228094549
smoothSolver:  Solving for i, Initial residual = 0.0545061343645, Final residual = 0.000148517321813, No Iterations 2
smoothSolver:  Solving for epsilon, Initial residual = 0.0310161111523, Final residual = 3.57280110568e-05, No Iterations 2
smoothSolver:  Solving for k, Initial residual = 0.0258274006349, Final residual = 4.09864722966e-05, No Iterations 2
ExecutionTime = 0.99 s  ClockTime = 1 s

GGI pair (GVOUTLET, RUINLET)
Area: 0.00469999625306 0.00469999625306 Diff = 0 or 0 % 
Flux: 0.0222028721249 0.0222028721249 Diff = 1.56125112838e-17 or 7.03175300742e-14 %
GGI pair (RUOUTLET, DTINLET)
Area: 0.00469999625293 0.00469999625293 Diff = 0 or 0 % 
Flux: 0.0274679035187 0.0274679035187 Diff = 0 or 0 %
Cyclic GGI pair (RUCYCLIC1, RUCYCLIC2)
Area: 0.00221580595009 0.00221580595006 Diff = 3.09218796402e-14 or 1.39551388238e-09 % 
Flux: 0.0682483437761 0.0682483437665 Diff = -9.58334800405e-12 or 1.40418762915e-08 %
Cyclic GGI pair (DTCYCLIC1, DTCYCLIC2)
Area: 0.00349999999952 0.00349999999943 Diff = 8.85771490877e-14 or 2.53077568857e-09 % 
Flux: 0.005697716364 0.00569771636215 Diff = -1.8486913389e-12 or 3.24461805537e-08 %
Time = 32

smoothSolver:  Solving for Ux, Initial residual = 0.0101581033908, Final residual = 1.89858463699e-05, No Iterations 2
smoothSolver:  Solving for Uy, Initial residual = 0.00610201280352, Final residual = 1.11362072016e-05, No Iterations 2
smoothSolver:  Solving for Uz, Initial residual = 0.0365305636235, Final residual = 7.81103132661e-05, No Iterations 2
GAMG:  Solving for p, Initial residual = 0.421259817136, Final residual = 0.0154852867521, No Iterations 4
time step continuity errors : sum local = 14.6547545461, global = -12.6054027319, cumulative = -38.8334972809
smoothSolver:  Solving for i, Initial residual = 0.0493414893695, Final residual = 0.000137154978473, No Iterations 2
smoothSolver:  Solving for epsilon, Initial residual = 0.0299987342497, Final residual = 3.49167754151e-05, No Iterations 2
smoothSolver:  Solving for k, Initial residual = 0.0249757909641, Final residual = 4.01329307251e-05, No Iterations 2
ExecutionTime = 1.01 s  ClockTime = 1 s

GGI pair (GVOUTLET, RUINLET)
Area: 0.00469999625306 0.00469999625306 Diff = 0 or 0 % 
Flux: 0.0221202393717 0.0221202393717 Diff = -8.67361737988e-18 or 3.92112274832e-14 %
GGI pair (RUOUTLET, DTINLET)
Area: 0.00469999625293 0.00469999625293 Diff = 0 or 0 % 
Flux: 0.0265913486206 0.0265913486206 Diff = -5.89805981832e-17 or 2.21803711518e-13 %
Cyclic GGI pair (RUCYCLIC1, RUCYCLIC2)
Area: 0.00221580595009 0.00221580595006 Diff = 3.09218796402e-14 or 1.39551388238e-09 % 
Flux: 0.0672413313703 0.0672413313606 Diff = -9.69152536001e-12 or 1.44130479907e-08 %
Cyclic GGI pair (DTCYCLIC1, DTCYCLIC2)
Area: 0.00349999999952 0.00349999999943 Diff = 8.85771490877e-14 or 2.53077568857e-09 % 
Flux: 0.00576878543706 0.00576878543514 Diff = -1.92201029398e-12 or 3.33174168973e-08 %
Time = 33

smoothSolver:  Solving for Ux, Initial residual = 0.0102914201893, Final residual = 1.86868440813e-05, No Iterations 2
smoothSolver:  Solving for Uy, Initial residual = 0.00612105024111, Final residual = 1.18644486156e-05, No Iterations 2
smoothSolver:  Solving for Uz, Initial residual = 0.0393735862677, Final residual = 7.66331557626e-05, No Iterations 2
GAMG:  Solving for p, Initial residual = 0.373499505393, Final residual = 0.0118697295612, No Iterations 4
time step continuity errors : sum local = 13.5249363725, global = -11.3677537698, cumulative = -50.2012510506
smoothSolver:  Solving for i, Initial residual = 0.0447927280037, Final residual = 0.000125986478585, No Iterations 2
smoothSolver:  Solving for epsilon, Initial residual = 0.0291616430964, Final residual = 3.42987685758e-05, No Iterations 2
smoothSolver:  Solving for k, Initial residual = 0.0242336082394, Final residual = 3.93969887009e-05, No Iterations 2
ExecutionTime = 1.03 s  ClockTime = 1 s

GGI pair (GVOUTLET, RUINLET)
Area: 0.00469999625306 0.00469999625306 Diff = 0 or 0 % 
Flux: 0.022093381959 0.022093381959 Diff = 4.33680868994e-19 or 1.96294469448e-15 %
GGI pair (RUOUTLET, DTINLET)
Area: 0.00469999625293 0.00469999625293 Diff = 0 or 0 % 
Flux: 0.0255696819232 0.0255696819232 Diff = 2.08166817117e-17 or 8.14115786589e-14 %
Cyclic GGI pair (RUCYCLIC1, RUCYCLIC2)
Area: 0.00221580595009 0.00221580595006 Diff = 3.09218796402e-14 or 1.39551388238e-09 % 
Flux: 0.0661230837459 0.066123083736 Diff = -9.82991466003e-12 or 1.48660862488e-08 %
Cyclic GGI pair (DTCYCLIC1, DTCYCLIC2)
Area: 0.00349999999952 0.00349999999943 Diff = 8.85771490877e-14 or 2.53077568857e-09 % 
Flux: 0.00582915132726 0.00582915132528 Diff = -1.98502238952e-12 or 3.40533686307e-08 %
Time = 34

smoothSolver:  Solving for Ux, Initial residual = 0.0107299640791, Final residual = 1.96966382872e-05, No Iterations 2
smoothSolver:  Solving for Uy, Initial residual = 0.00628322796632, Final residual = 1.29428970143e-05, No Iterations 2
smoothSolver:  Solving for Uz, Initial residual = 0.0416254541332, Final residual = 7.47216998544e-05, No Iterations 2
GAMG:  Solving for p, Initial residual = 0.321253550083, Final residual = 0.00883428937722, No Iterations 4
time step continuity errors : sum local = 12.1272200753, global = -9.96879760535, cumulative = -60.170048656
smoothSolver:  Solving for i, Initial residual = 0.0404425781736, Final residual = 0.000115774501677, No Iterations 2
smoothSolver:  Solving for epsilon, Initial residual = 0.0284546179437, Final residual = 3.38899699298e-05, No Iterations 2
smoothSolver:  Solving for k, Initial residual = 0.0235689150167, Final residual = 3.87689510243e-05, No Iterations 2
ExecutionTime = 1.05 s  ClockTime = 1 s

GGI pair (GVOUTLET, RUINLET)
Area: 0.00469999625306 0.00469999625306 Diff = 0 or 0 % 
Flux: 0.0221014532121 0.0221014532121 Diff = -1.04083408559e-17 or 4.7093468271e-14 %
GGI pair (RUOUTLET, DTINLET)
Area: 0.00469999625293 0.00469999625293 Diff = 0 or 0 % 
Flux: 0.0244814391559 0.0244814391559 Diff = 1.38777878078e-17 or 5.66869770989e-14 %
Cyclic GGI pair (RUCYCLIC1, RUCYCLIC2)
Area: 0.00221580595009 0.00221580595006 Diff = 3.09218796402e-14 or 1.39551388238e-09 % 
Flux: 0.0649058483097 0.0649058482997 Diff = -9.99901550447e-12 or 1.54054153283e-08 %
Cyclic GGI pair (DTCYCLIC1, DTCYCLIC2)
Area: 0.00349999999952 0.00349999999943 Diff = 8.85771490877e-14 or 2.53077568857e-09 % 
Flux: 0.00590486885258 0.00590486885054 Diff = -2.04694074191e-12 or 3.46653040568e-08 %
Time = 35

smoothSolver:  Solving for Ux, Initial residual = 0.011289104096, Final residual = 2.11823515394e-05, No Iterations 2
smoothSolver:  Solving for Uy, Initial residual = 0.00643557080415, Final residual = 1.39476036913e-05, No Iterations 2
smoothSolver:  Solving for Uz, Initial residual = 0.043698386441, Final residual = 7.3768957973e-05, No Iterations 2
GAMG:  Solving for p, Initial residual = 0.269376143031, Final residual = 0.00748574835035, No Iterations 4
time step continuity errors : sum local = 10.6149844099, global = -8.43365055291, cumulative = -68.6036992089
smoothSolver:  Solving for i, Initial residual = 0.0361382235531, Final residual = 0.000107206136129, No Iterations 2
smoothSolver:  Solving for epsilon, Initial residual = 0.0277654197276, Final residual = 3.35493663877e-05, No Iterations 2
smoothSolver:  Solving for k, Initial residual = 0.0229362384091, Final residual = 3.81954174991e-05, No Iterations 2
ExecutionTime = 1.08 s  ClockTime = 1 s

GGI pair (GVOUTLET, RUINLET)
Area: 0.00469999625306 0.00469999625306 Diff = 0 or 0 % 
Flux: 0.0221280177461 0.0221280177461 Diff = 2.42861286637e-17 or 1.09752843397e-13 %
GGI pair (RUOUTLET, DTINLET)
Area: 0.00469999625293 0.00469999625293 Diff = 0 or 0 % 
Flux: 0.023365167399 0.023365167399 Diff = 1.38777878078e-17 or 5.93951995757e-14 %
Cyclic GGI pair (RUCYCLIC1, RUCYCLIC2)
Area: 0.00221580595009 0.00221580595006 Diff = 3.09218796402e-14 or 1.39551388238e-09 % 
Flux: 0.0636313322208 0.0636313322107 Diff = -1.0154571628e-11 or 1.5958445743e-08 %
Cyclic GGI pair (DTCYCLIC1, DTCYCLIC2)
Area: 0.00349999999952 0.00349999999943 Diff = 8.85771490877e-14 or 2.53077568857e-09 % 
Flux: 0.00598581009327 0.00598581009115 Diff = -2.11860563815e-12 or 3.53937997553e-08 %
Time = 36

smoothSolver:  Solving for Ux, Initial residual = 0.0119655104805, Final residual = 2.35477800983e-05, No Iterations 2
smoothSolver:  Solving for Uy, Initial residual = 0.00650055586168, Final residual = 1.47729459168e-05, No Iterations 2
smoothSolver:  Solving for Uz, Initial residual = 0.045894997262, Final residual = 7.5157556975e-05, No Iterations 2
GAMG:  Solving for p, Initial residual = 0.210290440663, Final residual = 0.00610820538605, No Iterations 4
time step continuity errors : sum local = 9.17098648912, global = -6.77699556167, cumulative = -75.3806947705
smoothSolver:  Solving for i, Initial residual = 0.0318319398633, Final residual = 9.92940649065e-05, No Iterations 2
smoothSolver:  Solving for epsilon, Initial residual = 0.0270696331963, Final residual = 3.32367268498e-05, No Iterations 2
smoothSolver:  Solving for k, Initial residual = 0.0223094654251, Final residual = 3.76655884053e-05, No Iterations 2
ExecutionTime = 1.11 s  ClockTime = 1 s

GGI pair (GVOUTLET, RUINLET)
Area: 0.00469999625306 0.00469999625306 Diff = 0 or 0 % 
Flux: 0.0221364001697 0.0221364001697 Diff = 0 or 0 %
GGI pair (RUOUTLET, DTINLET)
Area: 0.00469999625293 0.00469999625293 Diff = 0 or 0 % 
Flux: 0.0221479562226 0.0221479562226 Diff = -6.93889390391e-18 or 3.13297255699e-14 %
Cyclic GGI pair (RUCYCLIC1, RUCYCLIC2)
Area: 0.00221580595009 0.00221580595006 Diff = 3.09218796402e-14 or 1.39551388238e-09 % 
Flux: 0.0623465803217 0.0623465803113 Diff = -1.03883707192e-11 or 1.66622943321e-08 %
Cyclic GGI pair (DTCYCLIC1, DTCYCLIC2)
Area: 0.00349999999952 0.00349999999943 Diff = 8.85771490877e-14 or 2.53077568857e-09 % 
Flux: 0.00606999600762 0.00606999600541 Diff = -2.20657780242e-12 or 3.63522117585e-08 %
Time = 37

smoothSolver:  Solving for Ux, Initial residual = 0.012454689781, Final residual = 2.601104435e-05, No Iterations 2
smoothSolver:  Solving for Uy, Initial residual = 0.00647836271406, Final residual = 1.51751275985e-05, No Iterations 2
smoothSolver:  Solving for Uz, Initial residual = 0.048348509759, Final residual = 8.03989353651e-05, No Iterations 2
GAMG:  Solving for p, Initial residual = 0.145878033905, Final residual = 0.00453483777993, No Iterations 4
time step continuity errors : sum local = 7.67131814289, global = -5.03421309, cumulative = -80.4149078605
smoothSolver:  Solving for i, Initial residual = 0.0274939805186, Final residual = 9.07721259807e-05, No Iterations 2
smoothSolver:  Solving for epsilon, Initial residual = 0.0263148813842, Final residual = 3.29682794354e-05, No Iterations 2
smoothSolver:  Solving for k, Initial residual = 0.0216739812614, Final residual = 3.71298758245e-05, No Iterations 2
ExecutionTime = 1.13 s  ClockTime = 1 s

GGI pair (GVOUTLET, RUINLET)
Area: 0.00469999625306 0.00469999625306 Diff = 0 or 0 % 
Flux: 0.0221523323538 0.0221523323538 Diff = -2.08166817117e-17 or 9.39706094116e-14 %
GGI pair (RUOUTLET, DTINLET)
Area: 0.00469999625293 0.00469999625293 Diff = 0 or 0 % 
Flux: 0.0209379705019 0.0209379705019 Diff = -1.73472347598e-17 or 8.28506027278e-14 %
Cyclic GGI pair (RUCYCLIC1, RUCYCLIC2)
Area: 0.00221580595009 0.00221580595006 Diff = 3.09218796402e-14 or 1.39551388238e-09 % 
Flux: 0.0610508942137 0.0610508942031 Diff = -1.05885300528e-11 or 1.73437755321e-08 %
Cyclic GGI pair (DTCYCLIC1, DTCYCLIC2)
Area: 0.00349999999952 0.00349999999943 Diff = 8.85771490877e-14 or 2.53077568857e-09 % 
Flux: 0.00620829015572 0.00620829015342 Diff = -2.30054343631e-12 or 3.70559909186e-08 %
Time = 38

smoothSolver:  Solving for Ux, Initial residual = 0.0126448837127, Final residual = 2.79288736571e-05, No Iterations 2
smoothSolver:  Solving for Uy, Initial residual = 0.00636988285596, Final residual = 1.50241245198e-05, No Iterations 2
smoothSolver:  Solving for Uz, Initial residual = 0.0509231612414, Final residual = 9.07412908313e-05, No Iterations 2
GAMG:  Solving for p, Initial residual = 0.115499105368, Final residual = 0.00372938619194, No Iterations 4
time step continuity errors : sum local = 6.23319578537, global = -3.25214062663, cumulative = -83.6670484872
smoothSolver:  Solving for i, Initial residual = 0.0232087789478, Final residual = 8.20978931869e-05, No Iterations 2
smoothSolver:  Solving for epsilon, Initial residual = 0.0254702087928, Final residual = 3.2594392763e-05, No Iterations 2
smoothSolver:  Solving for k, Initial residual = 0.0209858521951, Final residual = 3.65196687115e-05, No Iterations 2
ExecutionTime = 1.15 s  ClockTime = 1 s

GGI pair (GVOUTLET, RUINLET)
Area: 0.00469999625306 0.00469999625306 Diff = 0 or 0 % 
Flux: 0.0221849202908 0.0221849202908 Diff = 6.93889390391e-18 or 3.12775246111e-14 %
GGI pair (RUOUTLET, DTINLET)
Area: 0.00469999625293 0.00469999625293 Diff = 0 or 0 % 
Flux: 0.0199220813739 0.0199220813739 Diff = 4.16333634234e-17 or 2.08980992708e-13 %
Cyclic GGI pair (RUCYCLIC1, RUCYCLIC2)
Area: 0.00221580595009 0.00221580595006 Diff = 3.09218796402e-14 or 1.39551388238e-09 % 
Flux: 0.059719555242 0.0597195552312 Diff = -1.07999789667e-11 or 1.80844933003e-08 %
Cyclic GGI pair (DTCYCLIC1, DTCYCLIC2)
Area: 0.00349999999952 0.00349999999943 Diff = 8.85771490877e-14 or 2.53077568857e-09 % 
Flux: 0.00635540907816 0.00635540907575 Diff = -2.41015367386e-12 or 3.79228723788e-08 %
Time = 39

smoothSolver:  Solving for Ux, Initial residual = 0.0124521267998, Final residual = 2.87891494225e-05, No Iterations 2
smoothSolver:  Solving for Uy, Initial residual = 0.00619105321921, Final residual = 1.44066131803e-05, No Iterations 2
smoothSolver:  Solving for Uz, Initial residual = 0.0530153450162, Final residual = 0.000103475548331, No Iterations 2
GAMG:  Solving for p, Initial residual = 0.111896664117, Final residual = 0.0036841097438, No Iterations 4
time step continuity errors : sum local = 4.94872804971, global = -1.45828502083, cumulative = -85.125333508
smoothSolver:  Solving for i, Initial residual = 0.0192576940754, Final residual = 7.31481175177e-05, No Iterations 2
smoothSolver:  Solving for epsilon, Initial residual = 0.0245548367479, Final residual = 3.20247917218e-05, No Iterations 2
smoothSolver:  Solving for k, Initial residual = 0.0202208841372, Final residual = 3.58588202164e-05, No Iterations 2
ExecutionTime = 1.18 s  ClockTime = 1 s

GGI pair (GVOUTLET, RUINLET)
Area: 0.00469999625306 0.00469999625306 Diff = 0 or 0 % 
Flux: 0.0222164078047 0.0222164078047 Diff = 4.16333634234e-17 or 1.87399168171e-13 %
GGI pair (RUOUTLET, DTINLET)
Area: 0.00469999625293 0.00469999625293 Diff = 0 or 0 % 
Flux: 0.0195079220014 0.0195079220014 Diff = -1.73472347598e-17 or 8.89240522825e-14 %
Cyclic GGI pair (RUCYCLIC1, RUCYCLIC2)
Area: 0.00221580595009 0.00221580595006 Diff = 3.09218796402e-14 or 1.39551388238e-09 % 
Flux: 0.0583772310854 0.0583772310744 Diff = -1.10259787411e-11 or 1.88874644037e-08 %
Cyclic GGI pair (DTCYCLIC1, DTCYCLIC2)
Area: 0.00349999999952 0.00349999999943 Diff = 8.85771490877e-14 or 2.53077568857e-09 % 
Flux: 0.00655713740867 0.00655713740613 Diff = -2.53720829069e-12 or 3.86938405063e-08 %
Time = 40

smoothSolver:  Solving for Ux, Initial residual = 0.0120508664403, Final residual = 2.87570977063e-05, No Iterations 2
smoothSolver:  Solving for Uy, Initial residual = 0.00610924098971, Final residual = 1.38613248079e-05, No Iterations 2
smoothSolver:  Solving for Uz, Initial residual = 0.0542357092567, Final residual = 0.000115891763795, No Iterations 2
GAMG:  Solving for p, Initial residual = 0.125533026395, Final residual = 0.00416654905634, No Iterations 4
time step continuity errors : sum local = 4.04497317813, global = 0.252304559177, cumulative = -84.8730289488
smoothSolver:  Solving for i, Initial residual = 0.0166270030068, Final residual = 6.78076673387e-05, No Iterations 2
smoothSolver:  Solving for epsilon, Initial residual = 0.0235532999922, Final residual = 3.13456632483e-05, No Iterations 2
smoothSolver:  Solving for k, Initial residual = 0.0194262827248, Final residual = 3.51765405334e-05, No Iterations 2
ExecutionTime = 1.35 s  ClockTime = 1 s

GGI pair (GVOUTLET, RUINLET)
Area: 0.00469999625306 0.00469999625306 Diff = 0 or 0 % 
Flux: 0.022269301846 0.022269301846 Diff = -1.38777878078e-17 or 6.23180192347e-14 %
GGI pair (RUOUTLET, DTINLET)
Area: 0.00469999625293 0.00469999625293 Diff = 0 or 0 % 
Flux: 0.019472828907 0.019472828907 Diff = -1.73472347598e-17 or 8.90843073833e-14 %
Cyclic GGI pair (RUCYCLIC1, RUCYCLIC2)
Area: 0.00221580595009 0.00221580595006 Diff = 3.09218796402e-14 or 1.39551388238e-09 % 
Flux: 0.0570456634558 0.0570456634445 Diff = -1.1265099964e-11 or 1.97475132754e-08 %
Cyclic GGI pair (DTCYCLIC1, DTCYCLIC2)
Area: 0.00349999999952 0.00349999999943 Diff = 8.85771490877e-14 or 2.53077568857e-09 % 
Flux: 0.00670077418968 0.00670077418701 Diff = -2.6750945209e-12 or 3.99221708593e-08 %
Time = 41

smoothSolver:  Solving for Ux, Initial residual = 0.0116063899647, Final residual = 2.84985916875e-05, No Iterations 2
smoothSolver:  Solving for Uy, Initial residual = 0.00622097302776, Final residual = 1.42218480534e-05, No Iterations 2
smoothSolver:  Solving for Uz, Initial residual = 0.0544237390755, Final residual = 0.000126000400355, No Iterations 2
GAMG:  Solving for p, Initial residual = 0.141891053883, Final residual = 0.00437623794455, No Iterations 4
time step continuity errors : sum local = 3.67081974887, global = 1.74565801804, cumulative = -83.1273709308
smoothSolver:  Solving for i, Initial residual = 0.0159005010273, Final residual = 6.95524129924e-05, No Iterations 2
smoothSolver:  Solving for epsilon, Initial residual = 0.0224810512054, Final residual = 3.0555046644e-05, No Iterations 2
smoothSolver:  Solving for k, Initial residual = 0.0186904250674, Final residual = 3.43947420401e-05, No Iterations 2
ExecutionTime = 1.37 s  ClockTime = 1 s

GGI pair (GVOUTLET, RUINLET)
Area: 0.00469999625306 0.00469999625306 Diff = 0 or 0 % 
Flux: 0.0223146225207 0.0223146225207 Diff = 0 or 0 %
GGI pair (RUOUTLET, DTINLET)
Area: 0.00469999625293 0.00469999625293 Diff = 0 or 0 % 
Flux: 0.0195357598386 0.0195357598386 Diff = 6.93889390391e-18 or 3.55189353332e-14 %
Cyclic GGI pair (RUCYCLIC1, RUCYCLIC2)
Area: 0.00221580595009 0.00221580595006 Diff = 3.09218796402e-14 or 1.39551388238e-09 % 
Flux: 0.0557497130402 0.0557497130287 Diff = -1.14865617018e-11 or 2.0603804173e-08 %
Cyclic GGI pair (DTCYCLIC1, DTCYCLIC2)
Area: 0.00349999999952 0.00349999999943 Diff = 8.85771490877e-14 or 2.53077568857e-09 % 
Flux: 0.00670335893854 0.00670335893574 Diff = -2.80269557562e-12 or 4.18103163103e-08 %
Time = 42

smoothSolver:  Solving for Ux, Initial residual = 0.0112827049619, Final residual = 2.83954741077e-05, No Iterations 2
smoothSolver:  Solving for Uy, Initial residual = 0.00650084458277, Final residual = 1.54880040453e-05, No Iterations 2
smoothSolver:  Solving for Uz, Initial residual = 0.0536416240333, Final residual = 0.000132079311306, No Iterations 2
GAMG:  Solving for p, Initial residual = 0.15314897494, Final residual = 0.00655518097333, No Iterations 3
time step continuity errors : sum local = 4.76413666388, global = 3.17413490097, cumulative = -79.9532360298
smoothSolver:  Solving for i, Initial residual = 0.0198265113725, Final residual = 9.16474234425e-05, No Iterations 2
smoothSolver:  Solving for epsilon, Initial residual = 0.0215429884457, Final residual = 2.96076013841e-05, No Iterations 2
smoothSolver:  Solving for k, Initial residual = 0.0178961015751, Final residual = 3.35429164026e-05, No Iterations 2
ExecutionTime = 1.39 s  ClockTime = 1 s

GGI pair (GVOUTLET, RUINLET)
Area: 0.00469999625306 0.00469999625306 Diff = 0 or 0 % 
Flux: 0.0223272348068 0.0223272348068 Diff = -8.67361737988e-19 or 3.88477008234e-15 %
GGI pair (RUOUTLET, DTINLET)
Area: 0.00469999625293 0.00469999625293 Diff = 0 or 0 % 
Flux: 0.0200237648053 0.0200237648053 Diff = 1.73472347598e-17 or 8.66332327037e-14 %
Cyclic GGI pair (RUCYCLIC1, RUCYCLIC2)
Area: 0.00221580595009 0.00221580595006 Diff = 3.09218796402e-14 or 1.39551388238e-09 % 
Flux: 0.0545306298114 0.0545306297996 Diff = -1.17447163106e-11 or 2.15378336015e-08 %
Cyclic GGI pair (DTCYCLIC1, DTCYCLIC2)
Area: 0.00349999999952 0.00349999999943 Diff = 8.85771490877e-14 or 2.53077568857e-09 % 
Flux: 0.00656992402356 0.00656992402062 Diff = -2.94158187392e-12 or 4.47734534428e-08 %
Time = 43

smoothSolver:  Solving for Ux, Initial residual = 0.0110486417679, Final residual = 2.84168550557e-05, No Iterations 2
smoothSolver:  Solving for Uy, Initial residual = 0.00694459623005, Final residual = 1.76794424485e-05, No Iterations 2
smoothSolver:  Solving for Uz, Initial residual = 0.0515173703491, Final residual = 0.000133246962599, No Iterations 2
GAMG:  Solving for p, Initial residual = 0.160810608864, Final residual = 0.00612328901649, No Iterations 3
time step continuity errors : sum local = 5.465049266, global = 4.12403914203, cumulative = -75.8291968878
smoothSolver:  Solving for i, Initial residual = 0.0223177611974, Final residual = 0.000101605810115, No Iterations 2
smoothSolver:  Solving for epsilon, Initial residual = 0.0207152761056, Final residual = 2.85459853845e-05, No Iterations 2
smoothSolver:  Solving for k, Initial residual = 0.0171839955077, Final residual = 3.27970745046e-05, No Iterations 2
ExecutionTime = 1.42 s  ClockTime = 1 s

GGI pair (GVOUTLET, RUINLET)
Area: 0.00469999625306 0.00469999625306 Diff = 0 or 0 % 
Flux: 0.0223529851447 0.0223529851447 Diff = 3.46944695195e-18 or 1.55211795181e-14 %
GGI pair (RUOUTLET, DTINLET)
Area: 0.00469999625293 0.00469999625293 Diff = 0 or 0 % 
Flux: 0.0208644393585 0.0208644393585 Diff = 0 or 0 %
Cyclic GGI pair (RUCYCLIC1, RUCYCLIC2)
Area: 0.00221580595009 0.00221580595006 Diff = 3.09218796402e-14 or 1.39551388238e-09 % 
Flux: 0.0533369594936 0.0533369594818 Diff = -1.18757226275e-11 or 2.22654660863e-08 %
Cyclic GGI pair (DTCYCLIC1, DTCYCLIC2)
Area: 0.00349999999952 0.00349999999943 Diff = 8.85771490877e-14 or 2.53077568857e-09 % 
Flux: 0.00645219123059 0.00645219122763 Diff = -3.09392182013e-12 or 4.79514898049e-08 %
Time = 44

smoothSolver:  Solving for Ux, Initial residual = 0.0109018911843, Final residual = 2.84699148281e-05, No Iterations 2
smoothSolver:  Solving for Uy, Initial residual = 0.00748327605908, Final residual = 2.05081052317e-05, No Iterations 2
smoothSolver:  Solving for Uz, Initial residual = 0.0481728294745, Final residual = 0.000129662154844, No Iterations 2
GAMG:  Solving for p, Initial residual = 0.169301488243, Final residual = 0.00700905877466, No Iterations 3
time step continuity errors : sum local = 6.62544150443, global = 4.91162721583, cumulative = -70.9175696719
smoothSolver:  Solving for i, Initial residual = 0.0263200063561, Final residual = 0.000119303433386, No Iterations 2
smoothSolver:  Solving for epsilon, Initial residual = 0.0199054875405, Final residual = 2.77394078422e-05, No Iterations 2
smoothSolver:  Solving for k, Initial residual = 0.0165138652727, Final residual = 3.21222335362e-05, No Iterations 2
ExecutionTime = 1.45 s  ClockTime = 2 s

GGI pair (GVOUTLET, RUINLET)
Area: 0.00469999625306 0.00469999625306 Diff = 0 or 0 % 
Flux: 0.0223660234581 0.0223660234581 Diff = -1.73472347598e-17 or 7.75606570934e-14 %
GGI pair (RUOUTLET, DTINLET)
Area: 0.00469999625293 0.00469999625293 Diff = 0 or 0 % 
Flux: 0.0218156998537 0.0218156998537 Diff = -1.73472347598e-17 or 7.9517204931e-14 %
Cyclic GGI pair (RUCYCLIC1, RUCYCLIC2)
Area: 0.00221580595009 0.00221580595006 Diff = 3.09218796402e-14 or 1.39551388238e-09 % 
Flux: 0.0522049120647 0.0522049120527 Diff = -1.20300297501e-11 or 2.30438655566e-08 %
Cyclic GGI pair (DTCYCLIC1, DTCYCLIC2)
Area: 0.00349999999952 0.00349999999943 Diff = 8.85771490877e-14 or 2.53077568857e-09 % 
Flux: 0.00630186872225 0.00630186871914 Diff = -3.2764554958e-12 or 5.19918081479e-08 %
Time = 45

smoothSolver:  Solving for Ux, Initial residual = 0.010812931846, Final residual = 2.86659326336e-05, No Iterations 2
smoothSolver:  Solving for Uy, Initial residual = 0.00807487815566, Final residual = 2.3897077915e-05, No Iterations 2
smoothSolver:  Solving for Uz, Initial residual = 0.0439726736606, Final residual = 0.000123144855534, No Iterations 2
GAMG:  Solving for p, Initial residual = 0.170760644781, Final residual = 0.0077979542107, No Iterations 3
time step continuity errors : sum local = 7.63739127986, global = 5.57717108419, cumulative = -65.3403985878
[...]
GGI pair (RUOUTLET, DTINLET)
Area: 0.00469999625293 0.00469999625293 Diff = 0 or 0 % 
Flux: 0.0398404678567 0.0398404678567 Diff = 1.73472347598e-17 or 4.35417445953e-14 %
Cyclic GGI pair (RUCYCLIC1, RUCYCLIC2)
Area: 0.00221580595009 0.00221580595006 Diff = 3.09218796402e-14 or 1.39551388238e-09 % 
Flux: 0.0340377837143 0.0340377837127 Diff = -1.6006085346e-12 or 4.70244639908e-09 %
Cyclic GGI pair (DTCYCLIC1, DTCYCLIC2)
Area: 0.00349999999952 0.00349999999943 Diff = 8.85771490877e-14 or 2.53077568857e-09 % 
Flux: 0.0276825750866 0.0276825750944 Diff = -7.76928521518e-12 or 2.80656159728e-08 %
Time = 190

smoothSolver:  Solving for Ux, Initial residual = 0.00286678246873, Final residual = 1.36492901444e-05, No Iterations 2
smoothSolver:  Solving for Uy, Initial residual = 0.00248483229204, Final residual = 1.14717525293e-05, No Iterations 2
smoothSolver:  Solving for Uz, Initial residual = 0.00342971108226, Final residual = 1.22485445322e-05, No Iterations 2
GAMG:  Solving for p, Initial residual = 0.0344885661828, Final residual = 0.0014878270385, No Iterations 2
time step continuity errors : sum local = 0.269279126665, global = -0.0386446624563, cumulative = 36.8754478878
smoothSolver:  Solving for i, Initial residual = 0.00780363237968, Final residual = 3.07785823476e-05, No Iterations 2
smoothSolver:  Solving for epsilon, Initial residual = 0.00602056584489, Final residual = 1.92149744001e-05, No Iterations 2
smoothSolver:  Solving for k, Initial residual = 0.00526901229503, Final residual = 2.06561788036e-05, No Iterations 2
ExecutionTime = 6 s  ClockTime = 6 s

GGI pair (GVOUTLET, RUINLET)
Area: 0.00469999625306 0.00469999625306 Diff = 0 or 0 % 
Flux: 0.0506140482688 0.0506140482688 Diff = 1.73472347598e-18 or 3.42735571508e-15 %
GGI pair (RUOUTLET, DTINLET)
Area: 0.00469999625293 0.00469999625293 Diff = 0 or 0 % 
Flux: 0.0399170618024 0.0399170618024 Diff = -1.38777878078e-17 or 3.47665564077e-14 %
Cyclic GGI pair (RUCYCLIC1, RUCYCLIC2)
Area: 0.00221580595009 0.00221580595006 Diff = 3.09218796402e-14 or 1.39551388238e-09 % 
Flux: 0.0340805187558 0.0340805187543 Diff = -1.51656465164e-12 or 4.44994591339e-09 %
Cyclic GGI pair (DTCYCLIC1, DTCYCLIC2)
Area: 0.00349999999952 0.00349999999943 Diff = 8.85771490877e-14 or 2.53077568857e-09 % 
Flux: 0.0278769527832 0.027876952791 Diff = -7.72969882545e-12 or 2.77279187778e-08 %
Time = 191

smoothSolver:  Solving for Ux, Initial residual = 0.00285464027133, Final residual = 1.35729455552e-05, No Iterations 2
smoothSolver:  Solving for Uy, Initial residual = 0.00246936882409, Final residual = 1.13850561476e-05, No Iterations 2
smoothSolver:  Solving for Uz, Initial residual = 0.00338897826436, Final residual = 1.20505931565e-05, No Iterations 2
GAMG:  Solving for p, Initial residual = 0.0340491811005, Final residual = 0.00152988814951, No Iterations 2
time step continuity errors : sum local = 0.355488532218, global = -0.201424787624, cumulative = 36.6740231002
smoothSolver:  Solving for i, Initial residual = 0.00835085026749, Final residual = 3.24195667343e-05, No Iterations 2
smoothSolver:  Solving for epsilon, Initial residual = 0.00596866317161, Final residual = 1.91157211802e-05, No Iterations 2
smoothSolver:  Solving for k, Initial residual = 0.00524005580188, Final residual = 2.05892858361e-05, No Iterations 2
ExecutionTime = 6.03 s  ClockTime = 6 s

GGI pair (GVOUTLET, RUINLET)
Area: 0.00469999625306 0.00469999625306 Diff = 0 or 0 % 
Flux: 0.050750067965 0.050750067965 Diff = -1.73472347598e-17 or 3.41816975925e-14 %
GGI pair (RUOUTLET, DTINLET)
Area: 0.00469999625293 0.00469999625293 Diff = 0 or 0 % 
Flux: 0.0399915093602 0.0399915093602 Diff = -3.46944695195e-18 or 8.6754588848e-15 %
Cyclic GGI pair (RUCYCLIC1, RUCYCLIC2)
Area: 0.00221580595009 0.00221580595006 Diff = 3.09218796402e-14 or 1.39551388238e-09 % 
Flux: 0.0341199430769 0.0341199430754 Diff = -1.43603184899e-12 or 4.20877562941e-09 %
Cyclic GGI pair (DTCYCLIC1, DTCYCLIC2)
Area: 0.00349999999952 0.00349999999943 Diff = 8.85771490877e-14 or 2.53077568857e-09 % 
Flux: 0.028067386498 0.0280673865057 Diff = -7.69231900399e-12 or 2.7406609463e-08 %
Time = 192

smoothSolver:  Solving for Ux, Initial residual = 0.00284096524118, Final residual = 1.3492037224e-05, No Iterations 2
smoothSolver:  Solving for Uy, Initial residual = 0.00244988476934, Final residual = 1.12864939953e-05, No Iterations 2
smoothSolver:  Solving for Uz, Initial residual = 0.0033297101854, Final residual = 1.17921986472e-05, No Iterations 2
GAMG:  Solving for p, Initial residual = 0.0336636180858, Final residual = 0.00160829972773, No Iterations 2
time step continuity errors : sum local = 0.480583693783, global = -0.359686916428, cumulative = 36.3143361838
smoothSolver:  Solving for i, Initial residual = 0.00910648921712, Final residual = 3.50056933006e-05, No Iterations 2
smoothSolver:  Solving for epsilon, Initial residual = 0.00591784927977, Final residual = 1.90207670744e-05, No Iterations 2
smoothSolver:  Solving for k, Initial residual = 0.00521215184096, Final residual = 2.05240717105e-05, No Iterations 2
ExecutionTime = 6.05 s  ClockTime = 6 s

GGI pair (GVOUTLET, RUINLET)
Area: 0.00469999625306 0.00469999625306 Diff = 0 or 0 % 
Flux: 0.0508828944455 0.0508828944455 Diff = 0 or 0 %
GGI pair (RUOUTLET, DTINLET)
Area: 0.00469999625293 0.00469999625293 Diff = 0 or 0 % 
Flux: 0.0400636557069 0.0400636557069 Diff = 8.67361737988e-19 or 2.16495904501e-15 %
Cyclic GGI pair (RUCYCLIC1, RUCYCLIC2)
Area: 0.00221580595009 0.00221580595006 Diff = 3.09218796402e-14 or 1.39551388238e-09 % 
Flux: 0.0341546086462 0.0341546086448 Diff = -1.35913502675e-12 or 3.97936056251e-09 %
Cyclic GGI pair (DTCYCLIC1, DTCYCLIC2)
Area: 0.00349999999952 0.00349999999943 Diff = 8.85771490877e-14 or 2.53077568857e-09 % 
Flux: 0.0282540830678 0.0282540830754 Diff = -7.65705207573e-12 or 2.71006921632e-08 %
Time = 193

smoothSolver:  Solving for Ux, Initial residual = 0.00282539857105, Final residual = 1.34063218098e-05, No Iterations 2
smoothSolver:  Solving for Uy, Initial residual = 0.00242633110453, Final residual = 1.11775456704e-05, No Iterations 2
smoothSolver:  Solving for Uz, Initial residual = 0.00325527105413, Final residual = 1.14835839597e-05, No Iterations 2
GAMG:  Solving for p, Initial residual = 0.0333925236607, Final residual = 0.000736705930551, No Iterations 3
time step continuity errors : sum local = 0.560213590477, global = -0.520830587496, cumulative = 35.7935055963
smoothSolver:  Solving for i, Initial residual = 0.00989193740928, Final residual = 3.79746526185e-05, No Iterations 2
smoothSolver:  Solving for epsilon, Initial residual = 0.00586861882844, Final residual = 1.89303007994e-05, No Iterations 2
smoothSolver:  Solving for k, Initial residual = 0.00518431276066, Final residual = 2.04595676291e-05, No Iterations 2
ExecutionTime = 6.07 s  ClockTime = 6 s

GGI pair (GVOUTLET, RUINLET)
Area: 0.00469999625306 0.00469999625306 Diff = 0 or 0 % 
Flux: 0.0510186729861 0.0510186729861 Diff = 3.46944695195e-18 or 6.80034730205e-15 %
GGI pair (RUOUTLET, DTINLET)
Area: 0.00469999625293 0.00469999625293 Diff = 0 or 0 % 
Flux: 0.0401344794477 0.0401344794477 Diff = -3.46944695195e-18 or 8.644554507e-15 %
Cyclic GGI pair (RUCYCLIC1, RUCYCLIC2)
Area: 0.00221580595009 0.00221580595006 Diff = 3.09218796402e-14 or 1.39551388238e-09 % 
Flux: 0.0341830485222 0.0341830485209 Diff = -1.28624888518e-12 or 3.76282672491e-09 %
Cyclic GGI pair (DTCYCLIC1, DTCYCLIC2)
Area: 0.00349999999952 0.00349999999943 Diff = 8.85771490877e-14 or 2.53077568857e-09 % 
Flux: 0.0284368381493 0.028436838157 Diff = -7.62394314346e-12 or 2.68100943692e-08 %
Time = 194

smoothSolver:  Solving for Ux, Initial residual = 0.00280560685504, Final residual = 1.33115089686e-05, No Iterations 2
smoothSolver:  Solving for Uy, Initial residual = 0.00239775948674, Final residual = 1.10577004088e-05, No Iterations 2
smoothSolver:  Solving for Uz, Initial residual = 0.00316193854237, Final residual = 1.11164049647e-05, No Iterations 2
GAMG:  Solving for p, Initial residual = 0.0332852762297, Final residual = 0.000798687736178, No Iterations 3
time step continuity errors : sum local = 0.703715915791, global = -0.666334401917, cumulative = 35.1271711944
smoothSolver:  Solving for i, Initial residual = 0.0108742538305, Final residual = 4.16216251474e-05, No Iterations 2
smoothSolver:  Solving for epsilon, Initial residual = 0.00582208374751, Final residual = 1.88400802587e-05, No Iterations 2
smoothSolver:  Solving for k, Initial residual = 0.00515820006572, Final residual = 2.03979747871e-05, No Iterations 2
ExecutionTime = 6.1 s  ClockTime = 6 s

GGI pair (GVOUTLET, RUINLET)
Area: 0.00469999625306 0.00469999625306 Diff = 0 or 0 % 
Flux: 0.0511502957576 0.0511502957576 Diff = 6.93889390391e-18 or 1.35656965441e-14 %
GGI pair (RUOUTLET, DTINLET)
Area: 0.00469999625293 0.00469999625293 Diff = 0 or 0 % 
Flux: 0.0402028465115 0.0402028465115 Diff = -6.07153216592e-18 or 1.51022444746e-14 %
Cyclic GGI pair (RUCYCLIC1, RUCYCLIC2)
Area: 0.00221580595009 0.00221580595006 Diff = 3.09218796402e-14 or 1.39551388238e-09 % 
Flux: 0.0342053907904 0.0342053907892 Diff = -1.21823384713e-12 or 3.5615258852e-09 %
Cyclic GGI pair (DTCYCLIC1, DTCYCLIC2)
Area: 0.00349999999952 0.00349999999943 Diff = 8.85771490877e-14 or 2.53077568857e-09 % 
Flux: 0.0286173060306 0.0286173060382 Diff = -7.59420304419e-12 or 2.65370997398e-08 %
Time = 195

smoothSolver:  Solving for Ux, Initial residual = 0.00278490407054, Final residual = 1.32146499221e-05, No Iterations 2
smoothSolver:  Solving for Uy, Initial residual = 0.00236601768578, Final residual = 1.09295864643e-05, No Iterations 2
smoothSolver:  Solving for Uz, Initial residual = 0.00305479485161, Final residual = 1.07066409265e-05, No Iterations 2
GAMG:  Solving for p, Initial residual = 0.0333074364794, Final residual = 0.000865808049187, No Iterations 3
time step continuity errors : sum local = 0.839257182981, global = -0.803790698572, cumulative = 34.3233804958
smoothSolver:  Solving for i, Initial residual = 0.0119062934905, Final residual = 4.54574888713e-05, No Iterations 2
smoothSolver:  Solving for epsilon, Initial residual = 0.0057764513088, Final residual = 1.87526714966e-05, No Iterations 2
smoothSolver:  Solving for k, Initial residual = 0.00513240661459, Final residual = 2.03371684471e-05, No Iterations 2
ExecutionTime = 6.12 s  ClockTime = 6 s

GGI pair (GVOUTLET, RUINLET)
Area: 0.00469999625306 0.00469999625306 Diff = 0 or 0 % 
Flux: 0.0512806409124 0.0512806409124 Diff = -1.21430643318e-17 or 2.36796266891e-14 %
GGI pair (RUOUTLET, DTINLET)
Area: 0.00469999625293 0.00469999625293 Diff = 0 or 0 % 
Flux: 0.0402692268698 0.0402692268698 Diff = 8.67361737988e-19 or 2.15390710329e-15 %
Cyclic GGI pair (RUCYCLIC1, RUCYCLIC2)
Area: 0.00221580595009 0.00221580595006 Diff = 3.09218796402e-14 or 1.39551388238e-09 % 
Flux: 0.0342206674364 0.0342206674352 Diff = -1.1547568457e-12 or 3.37444279205e-09 %
Cyclic GGI pair (DTCYCLIC1, DTCYCLIC2)
Area: 0.00349999999952 0.00349999999943 Diff = 8.85771490877e-14 or 2.53077568857e-09 % 
Flux: 0.0287949594473 0.0287949594548 Diff = -7.56711360239e-12 or 2.62792993901e-08 %
Time = 196

smoothSolver:  Solving for Ux, Initial residual = 0.00276266957609, Final residual = 1.3117904459e-05, No Iterations 2
smoothSolver:  Solving for Uy, Initial residual = 0.00233065475785, Final residual = 1.07924146205e-05, No Iterations 2
smoothSolver:  Solving for Uz, Initial residual = 0.00293570927211, Final residual = 1.02665170051e-05, No Iterations 2
GAMG:  Solving for p, Initial residual = 0.0334752370312, Final residual = 0.000936594697055, No Iterations 3
time step continuity errors : sum local = 0.965631089432, global = -0.932194525105, cumulative = 33.3911859707
smoothSolver:  Solving for i, Initial residual = 0.0129586942055, Final residual = 4.93109723418e-05, No Iterations 2
smoothSolver:  Solving for epsilon, Initial residual = 0.00573109182582, Final residual = 1.86671409843e-05, No Iterations 2
smoothSolver:  Solving for k, Initial residual = 0.00510669856653, Final residual = 2.02775686012e-05, No Iterations 2
ExecutionTime = 6.15 s  ClockTime = 6 s

GGI pair (GVOUTLET, RUINLET)
Area: 0.00469999625306 0.00469999625306 Diff = 0 or 0 % 
Flux: 0.051409791802 0.051409791802 Diff = 2.60208521397e-18 or 5.0614583774e-15 %
GGI pair (RUOUTLET, DTINLET)
Area: 0.00469999625293 0.00469999625293 Diff = 0 or 0 % 
Flux: 0.0403335046887 0.0403335046887 Diff = -5.20417042793e-18 or 1.29028470699e-14 %
Cyclic GGI pair (RUCYCLIC1, RUCYCLIC2)
Area: 0.00221580595009 0.00221580595006 Diff = 3.09218796402e-14 or 1.39551388238e-09 % 
Flux: 0.0342283693361 0.034228369335 Diff = -1.09569298079e-12 or 3.20112527135e-09 %
Cyclic GGI pair (DTCYCLIC1, DTCYCLIC2)
Area: 0.00349999999952 0.00349999999943 Diff = 8.85771490877e-14 or 2.53077568857e-09 % 
Flux: 0.0289699853499 0.0289699853575 Diff = -7.5422931789e-12 or 2.60348532724e-08 %
Time = 197

smoothSolver:  Solving for Ux, Initial residual = 0.00273921421958, Final residual = 1.30221938689e-05, No Iterations 2
smoothSolver:  Solving for Uy, Initial residual = 0.00229204277739, Final residual = 1.06490864228e-05, No Iterations 2
smoothSolver:  Solving for Uz, Initial residual = 0.00280704315117, Final residual = 9.80066393298e-06, No Iterations 2
GAMG:  Solving for p, Initial residual = 0.0337249487332, Final residual = 0.00100993983362, No Iterations 3
time step continuity errors : sum local = 1.08186318271, global = -1.05067624032, cumulative = 32.3405097304
smoothSolver:  Solving for i, Initial residual = 0.0139878826706, Final residual = 5.31116325181e-05, No Iterations 2
smoothSolver:  Solving for epsilon, Initial residual = 0.00568648786803, Final residual = 1.85838210257e-05, No Iterations 2
smoothSolver:  Solving for k, Initial residual = 0.00508052592847, Final residual = 2.02201322271e-05, No Iterations 2
ExecutionTime = 6.17 s  ClockTime = 6 s

GGI pair (GVOUTLET, RUINLET)
Area: 0.00469999625306 0.00469999625306 Diff = 0 or 0 % 
Flux: 0.0515414450666 0.0515414450666 Diff = 6.93889390391e-18 or 1.34627461355e-14 %
GGI pair (RUOUTLET, DTINLET)
Area: 0.00469999625293 0.00469999625293 Diff = 0 or 0 % 
Flux: 0.040395966564 0.040395966564 Diff = -1.73472347598e-18 or 4.29429872219e-15 %
Cyclic GGI pair (RUCYCLIC1, RUCYCLIC2)
Area: 0.00221580595009 0.00221580595006 Diff = 3.09218796402e-14 or 1.39551388238e-09 % 
Flux: 0.03422807254 0.0342280725389 Diff = -1.04095898568e-12 or 3.04124336671e-09 %
Cyclic GGI pair (DTCYCLIC1, DTCYCLIC2)
Area: 0.00349999999952 0.00349999999943 Diff = 8.85771490877e-14 or 2.53077568857e-09 % 
Flux: 0.0291427611918 0.0291427611994 Diff = -7.51952319855e-12 or 2.58023704379e-08 %
Time = 198

smoothSolver:  Solving for Ux, Initial residual = 0.00271478105713, Final residual = 1.29292959787e-05, No Iterations 2
smoothSolver:  Solving for Uy, Initial residual = 0.00225094058042, Final residual = 1.0500172269e-05, No Iterations 2
smoothSolver:  Solving for Uz, Initial residual = 0.00267103305515, Final residual = 9.31635935025e-06, No Iterations 2
GAMG:  Solving for p, Initial residual = 0.0341868065871, Final residual = 0.00108333456822, No Iterations 3
time step continuity errors : sum local = 1.18736890744, global = -1.15844786391, cumulative = 31.1820618665
smoothSolver:  Solving for i, Initial residual = 0.0149616893034, Final residual = 5.68275666698e-05, No Iterations 2
smoothSolver:  Solving for epsilon, Initial residual = 0.00564299486901, Final residual = 1.85016290415e-05, No Iterations 2
smoothSolver:  Solving for k, Initial residual = 0.0050539484846, Final residual = 2.01632178552e-05, No Iterations 2
ExecutionTime = 6.19 s  ClockTime = 6 s

GGI pair (GVOUTLET, RUINLET)
Area: 0.00469999625306 0.00469999625306 Diff = 0 or 0 % 
Flux: 0.0516722827054 0.0516722827054 Diff = -1.38777878078e-17 or 2.68573151431e-14 %
GGI pair (RUOUTLET, DTINLET)
Area: 0.00469999625293 0.00469999625293 Diff = 0 or 0 % 
Flux: 0.0404566942426 0.0404566942426 Diff = -4.33680868994e-18 or 1.07196318709e-14 %
Cyclic GGI pair (RUCYCLIC1, RUCYCLIC2)
Area: 0.00221580595009 0.00221580595006 Diff = 3.09218796402e-14 or 1.39551388238e-09 % 
Flux: 0.0342194279928 0.0342194279918 Diff = -9.90388326905e-13 or 2.89422817679e-09 %
Cyclic GGI pair (DTCYCLIC1, DTCYCLIC2)
Area: 0.00349999999952 0.00349999999943 Diff = 8.85771490877e-14 or 2.53077568857e-09 % 
Flux: 0.029313429437 0.0293134294445 Diff = -7.49848447223e-12 or 2.55803726014e-08 %
Time = 199

smoothSolver:  Solving for Ux, Initial residual = 0.00268981192454, Final residual = 1.28404022283e-05, No Iterations 2
smoothSolver:  Solving for Uy, Initial residual = 0.00220833022753, Final residual = 1.03486136171e-05, No Iterations 2
smoothSolver:  Solving for Uz, Initial residual = 0.00253055419886, Final residual = 8.83159034756e-06, No Iterations 2
GAMG:  Solving for p, Initial residual = 0.034940182606, Final residual = 0.00115722279113, No Iterations 3
time step continuity errors : sum local = 1.28156571614, global = -1.25482073631, cumulative = 29.9272411301
smoothSolver:  Solving for i, Initial residual = 0.0158571926108, Final residual = 6.02739781112e-05, No Iterations 2
smoothSolver:  Solving for epsilon, Initial residual = 0.00559925632814, Final residual = 1.84203543017e-05, No Iterations 2
smoothSolver:  Solving for k, Initial residual = 0.00502732261832, Final residual = 2.01062840314e-05, No Iterations 2
ExecutionTime = 6.22 s  ClockTime = 6 s

GGI pair (GVOUTLET, RUINLET)
Area: 0.00469999625306 0.00469999625306 Diff = 0 or 0 % 
Flux: 0.0518018206278 0.0518018206278 Diff = 1.12757025938e-17 or 2.17670005749e-14 %
GGI pair (RUOUTLET, DTINLET)
Area: 0.00469999625293 0.00469999625293 Diff = 0 or 0 % 
Flux: 0.0405156229022 0.0405156229022 Diff = 0 or 0 %
Cyclic GGI pair (RUCYCLIC1, RUCYCLIC2)
Area: 0.00221580595009 0.00221580595006 Diff = 3.09218796402e-14 or 1.39551388238e-09 % 
Flux: 0.0342021014913 0.0342021014904 Diff = -9.43821409916e-13 or 2.759542159e-09 %
Cyclic GGI pair (DTCYCLIC1, DTCYCLIC2)
Area: 0.00349999999952 0.00349999999943 Diff = 8.85771490877e-14 or 2.53077568857e-09 % 
Flux: 0.0294823083149 0.0294823083224 Diff = -7.47952394464e-12 or 2.53695330256e-08 %
Time = 200

smoothSolver:  Solving for Ux, Initial residual = 0.00266504801715, Final residual = 1.27569291843e-05, No Iterations 2
smoothSolver:  Solving for Uy, Initial residual = 0.00216517631137, Final residual = 1.01959542447e-05, No Iterations 2
smoothSolver:  Solving for Uz, Initial residual = 0.0023906967241, Final residual = 8.35088163172e-06, No Iterations 2
GAMG:  Solving for p, Initial residual = 0.0357655069195, Final residual = 0.00122929587341, No Iterations 3
time step continuity errors : sum local = 1.36396024391, global = -1.33919912322, cumulative = 28.5880420069
smoothSolver:  Solving for i, Initial residual = 0.0166612013322, Final residual = 6.33525239449e-05, No Iterations 2
smoothSolver:  Solving for epsilon, Initial residual = 0.00555433239856, Final residual = 1.83386741993e-05, No Iterations 2
smoothSolver:  Solving for k, Initial residual = 0.00500011446049, Final residual = 2.00490739544e-05, No Iterations 2
ExecutionTime = 6.39 s  ClockTime = 6 s

GGI pair (GVOUTLET, RUINLET)
Area: 0.00469999625306 0.00469999625306 Diff = 0 or 0 % 
Flux: 0.0519300520528 0.0519300520528 Diff = 1.21430643318e-17 or 2.33835011748e-14 %
GGI pair (RUOUTLET, DTINLET)
Area: 0.00469999625293 0.00469999625293 Diff = 0 or 0 % 
Flux: 0.040572472369 0.040572472369 Diff = 1.73472347598e-18 or 4.27561687688e-15 %
Cyclic GGI pair (RUCYCLIC1, RUCYCLIC2)
Area: 0.00221580595009 0.00221580595006 Diff = 3.09218796402e-14 or 1.39551388238e-09 % 
Flux: 0.034175936494 0.0341759364931 Diff = -9.00848839969e-13 or 2.63591559555e-09 %
Cyclic GGI pair (DTCYCLIC1, DTCYCLIC2)
Area: 0.00349999999952 0.00349999999943 Diff = 8.85771490877e-14 or 2.53077568857e-09 % 
Flux: 0.0296495209526 0.0296495209601 Diff = -7.46171180399e-12 or 2.51663823369e-08 %
End

