/*---------------------------------------------------------------------------*\
| =========                 |                                                 |
| \\      /  F ield         | foam-extend: Open Source CFD                    |
|  \\    /   O peration     | Version:     4.0                                |
|   \\  /    A nd           | Web:         http://www.foam-extend.org         |
|    \\/     M anipulation  | For copyright notice see file Copyright         |
\*---------------------------------------------------------------------------*/
Build    : 4.0-268bb07d15d8
Exec     : steadyCompressibleFoam
Date     : Apr 19 2019
Time     : 00:45:12
Host     : ubuntu-14
PID      : 20010
CtrlDict : "/home/stas/foam/foam-extend-4.0/tutorials/compressible/steadyCompressibleFoam/2bump/system/controlDict"
Case     : /home/stas/foam/foam-extend-4.0/tutorials/compressible/steadyCompressibleFoam/2bump
nProcs   : 1
SigFpe   : Enabling floating point exception trapping (FOAM_SIGFPE).

// * * * * * * * * * * * * * * * * * * * * * * * * * * * * * * * * * * * * * //
Create time

Create mesh for time = 0


    From function void polyMesh::initMesh()
    in file meshes/polyMesh/polyMeshInitMesh.C at line 81
    Truncating neighbour list at 26715 for backward compatibility

PIMPLE: Operating solver in PISO mode

Reading thermophysical properties

Selecting thermodynamics package hPsiThermo<pureMixture<constTransport<specieThermo<hConstThermo<perfectGas>>>>>

Reading field U

Reading/calculating face flux field phi

Creating turbulence model

Selecting RAS turbulence model laminar

Starting time loop

Creating divFlux for field phi
Creating MachNumber for field U
Creating minMaxField for field U
Creating minMaxField for field p
Creating minMaxField for field rho
Creating minMaxField for field T
Time = 1

BiCGStab:  Solving for Ux, Initial residual = 1, Final residual = 1.3983e-11, No Iterations 1
BiCGStab:  Solving for Uz, Initial residual = 1, Final residual = 6.4687e-11, No Iterations 3
BiCGStab:  Solving for p, Initial residual = 1, Final residual = 5.47689e-09, No Iterations 21
time step continuity errors : sum local = 0.0232024, global = 0.00741438, cumulative = 0.00741438
BiCGStab:  Solving for p, Initial residual = 0.555801, Final residual = 2.46711e-09, No Iterations 25
time step continuity errors : sum local = 0.0238107, global = 0.00225369, cumulative = 0.00966807
BiCGStab:  Solving for h, Initial residual = 1, Final residual = 2.21346e-09, No Iterations 2
ExecutionTime = 0.18 s  ClockTime = 0 s

Flux divergence min = 0 max = 1908.2 average: 3.47723
Mach number min = 1.43539 max = 1.84983
Field U magnitude min = 0 max = 638.754
Field p min = 57060.9 max = 144513
Field rho min = 0.671758 max = 1.60973
Field T min = 285.765 max = 314.915
Time = 2

BiCGStab:  Solving for Ux, Initial residual = 0.176811, Final residual = 2.83347e-09, No Iterations 2
BiCGStab:  Solving for Uz, Initial residual = 0.407155, Final residual = 1.29673e-11, No Iterations 3
BiCGStab:  Solving for p, Initial residual = 0.441354, Final residual = 2.08486e-09, No Iterations 26
time step continuity errors : sum local = 0.0114282, global = -0.00874978, cumulative = 0.000918295
BiCGStab:  Solving for p, Initial residual = 0.288506, Final residual = 3.42504e-09, No Iterations 27
time step continuity errors : sum local = 0.0126361, global = -0.0110932, cumulative = -0.0101749
BiCGStab:  Solving for h, Initial residual = 0.216729, Final residual = 5.5371e-09, No Iterations 2
ExecutionTime = 0.24 s  ClockTime = 0 s

Flux divergence min = 0 max = 698.413 average: 1.70027
Mach number min = 1.40409 max = 1.83112
Field U magnitude min = 0 max = 646.458
Field p min = 51793.1 max = 164818
Field rho min = 0.603867 max = 1.79972
Field T min = 284.52 max = 319.417
Time = 3

BiCGStab:  Solving for Ux, Initial residual = 0.144794, Final residual = 4.32387e-09, No Iterations 2
BiCGStab:  Solving for Uz, Initial residual = 0.226664, Final residual = 9.96463e-12, No Iterations 3
BiCGStab:  Solving for p, Initial residual = 0.443983, Final residual = 9.84302e-09, No Iterations 28
time step continuity errors : sum local = 0.0138469, global = -0.00421914, cumulative = -0.0143941
BiCGStab:  Solving for p, Initial residual = 0.28112, Final residual = 1.73644e-10, No Iterations 29
time step continuity errors : sum local = 0.0138415, global = -0.00624478, cumulative = -0.0206389
BiCGStab:  Solving for h, Initial residual = 0.174023, Final residual = 1.97835e-09, No Iterations 2
ExecutionTime = 0.31 s  ClockTime = 0 s

Flux divergence min = 0 max = 434.225 average: 1.50266
Mach number min = 1.3931 max = 1.82546
Field U magnitude min = 0 max = 645.75
Field p min = 56803.5 max = 162680
Field rho min = 0.650088 max = 1.77787
Field T min = 281.677 max = 320.692
Time = 4

BiCGStab:  Solving for Ux, Initial residual = 0.141678, Final residual = 5.86795e-09, No Iterations 2
BiCGStab:  Solving for Uz, Initial residual = 0.16036, Final residual = 1.27825e-11, No Iterations 3
BiCGStab:  Solving for p, Initial residual = 0.397517, Final residual = 6.54691e-09, No Iterations 27
time step continuity errors : sum local = 0.0156187, global = -0.00107752, cumulative = -0.0217164
BiCGStab:  Solving for p, Initial residual = 0.259733, Final residual = 6.54883e-09, No Iterations 27
time step continuity errors : sum local = 0.0153806, global = -0.00295146, cumulative = -0.0246678
BiCGStab:  Solving for h, Initial residual = 0.160082, Final residual = 2.37218e-09, No Iterations 2
ExecutionTime = 0.37 s  ClockTime = 0 s

Flux divergence min = 0 max = 359.227 average: 1.48137
Mach number min = 1.39947 max = 1.83067
Field U magnitude min = 0 max = 645.344
Field p min = 64853.5 max = 153215
Field rho min = 0.732533 max = 1.79252
Field T min = 277.256 max = 322.579
Time = 5

BiCGStab:  Solving for Ux, Initial residual = 0.136445, Final residual = 7.27771e-09, No Iterations 2
BiCGStab:  Solving for Uz, Initial residual = 0.13673, Final residual = 1.59608e-11, No Iterations 3
BiCGStab:  Solving for p, Initial residual = 0.349347, Final residual = 4.14131e-09, No Iterations 26
time step continuity errors : sum local = 0.0156588, global = -0.00012621, cumulative = -0.024794
BiCGStab:  Solving for p, Initial residual = 0.232456, Final residual = 4.49094e-09, No Iterations 26
time step continuity errors : sum local = 0.0154779, global = -0.00187704, cumulative = -0.0266711
BiCGStab:  Solving for h, Initial residual = 0.149576, Final residual = 2.72707e-09, No Iterations 2
ExecutionTime = 0.43 s  ClockTime = 0 s

Flux divergence min = 0 max = 411.628 average: 1.42539
Mach number min = 1.40753 max = 1.84123
Field U magnitude min = 0 max = 646.841
Field p min = 71500.7 max = 144893
Field rho min = 0.806388 max = 1.80651
Field T min = 272.966 max = 324.452
Time = 6

BiCGStab:  Solving for Ux, Initial residual = 0.124645, Final residual = 8.46184e-09, No Iterations 2
BiCGStab:  Solving for Uz, Initial residual = 0.121975, Final residual = 1.8329e-11, No Iterations 3
BiCGStab:  Solving for p, Initial residual = 0.326869, Final residual = 8.45967e-09, No Iterations 25
time step continuity errors : sum local = 0.0158059, global = 0.000460561, cumulative = -0.0262105
BiCGStab:  Solving for p, Initial residual = 0.218886, Final residual = 6.70245e-10, No Iterations 26
time step continuity errors : sum local = 0.0154997, global = -0.00127803, cumulative = -0.0274886
BiCGStab:  Solving for h, Initial residual = 0.138141, Final residual = 3.01907e-09, No Iterations 2
ExecutionTime = 0.49 s  ClockTime = 0 s

Flux divergence min = 0 max = 335.396 average: 1.41712
Mach number min = 1.40595 max = 1.85556
Field U magnitude min = 0 max = 648.363
Field p min = 72945.8 max = 142824
Field rho min = 0.841009 max = 1.7865
Field T min = 268.386 max = 326.254
Time = 7

BiCGStab:  Solving for Ux, Initial residual = 0.110284, Final residual = 8.80651e-09, No Iterations 2
BiCGStab:  Solving for Uz, Initial residual = 0.110396, Final residual = 1.8886e-11, No Iterations 3
BiCGStab:  Solving for p, Initial residual = 0.308286, Final residual = 6.02661e-09, No Iterations 25
time step continuity errors : sum local = 0.0159057, global = 0.00071137, cumulative = -0.0267772
BiCGStab:  Solving for p, Initial residual = 0.207285, Final residual = 9.66315e-09, No Iterations 24
time step continuity errors : sum local = 0.0155413, global = -0.00103438, cumulative = -0.0278116
BiCGStab:  Solving for h, Initial residual = 0.125541, Final residual = 2.99934e-09, No Iterations 2
ExecutionTime = 0.55 s  ClockTime = 0 s

Flux divergence min = 0 max = 209.584 average: 1.4356
Mach number min = 1.40256 max = 1.87042
Field U magnitude min = 0 max = 649.295
Field p min = 75413.1 max = 140016
Field rho min = 0.869257 max = 1.74665
Field T min = 263.378 max = 327.818
Time = 8

BiCGStab:  Solving for Ux, Initial residual = 0.0971849, Final residual = 8.64773e-09, No Iterations 2
BiCGStab:  Solving for Uz, Initial residual = 0.101693, Final residual = 1.80839e-11, No Iterations 3
BiCGStab:  Solving for p, Initial residual = 0.293307, Final residual = 1.00858e-09, No Iterations 25
time step continuity errors : sum local = 0.0157692, global = 0.00073053, cumulative = -0.027081
BiCGStab:  Solving for p, Initial residual = 0.197793, Final residual = 1.4391e-09, No Iterations 25
time step continuity errors : sum local = 0.0154451, global = -0.00100169, cumulative = -0.0280827
BiCGStab:  Solving for h, Initial residual = 0.112992, Final residual = 3.08446e-09, No Iterations 2
ExecutionTime = 0.61 s  ClockTime = 0 s

Flux divergence min = 0 max = 159.183 average: 1.44792
Mach number min = 1.39468 max = 1.89038
Field U magnitude min = 0 max = 649.493
Field p min = 77545.6 max = 138049
Field rho min = 0.864721 max = 1.70274
Field T min = 258.694 max = 329.923
Time = 9

BiCGStab:  Solving for Ux, Initial residual = 0.0864257, Final residual = 8.33504e-09, No Iterations 2
BiCGStab:  Solving for Uz, Initial residual = 0.0952478, Final residual = 1.7286e-11, No Iterations 3
BiCGStab:  Solving for p, Initial residual = 0.277744, Final residual = 5.05459e-10, No Iterations 26
time step continuity errors : sum local = 0.0157057, global = 0.000665216, cumulative = -0.0274175
BiCGStab:  Solving for p, Initial residual = 0.187842, Final residual = 7.27219e-10, No Iterations 26
time step continuity errors : sum local = 0.0153837, global = -0.00103388, cumulative = -0.0284514
BiCGStab:  Solving for h, Initial residual = 0.101937, Final residual = 3.23689e-09, No Iterations 2
ExecutionTime = 0.68 s  ClockTime = 1 s

Flux divergence min = 0 max = 175.993 average: 1.44555
Mach number min = 1.38262 max = 1.90659
Field U magnitude min = 0 max = 650.309
Field p min = 76781.2 max = 140770
Field rho min = 0.850629 max = 1.65939
Field T min = 254.555 max = 331.94
Time = 10

BiCGStab:  Solving for Ux, Initial residual = 0.0783009, Final residual = 7.93574e-09, No Iterations 2
BiCGStab:  Solving for Uz, Initial residual = 0.0900518, Final residual = 1.68901e-11, No Iterations 3
BiCGStab:  Solving for p, Initial residual = 0.261323, Final residual = 1.05541e-09, No Iterations 26
time step continuity errors : sum local = 0.0156584, global = 0.000584719, cumulative = -0.0278667
BiCGStab:  Solving for p, Initial residual = 0.177179, Final residual = 9.83819e-10, No Iterations 26
time step continuity errors : sum local = 0.0153582, global = -0.00106698, cumulative = -0.0289337
BiCGStab:  Solving for h, Initial residual = 0.0925389, Final residual = 3.38638e-09, No Iterations 2
ExecutionTime = 0.74 s  ClockTime = 1 s

Flux divergence min = 0 max = 176.447 average: 1.43433
Mach number min = 1.36742 max = 1.91871
Field U magnitude min = 0 max = 649.929
Field p min = 76147.5 max = 142867
Field rho min = 0.838211 max = 1.64506
Field T min = 250.664 max = 334.127
Time = 11

BiCGStab:  Solving for Ux, Initial residual = 0.0724821, Final residual = 7.59981e-09, No Iterations 2
BiCGStab:  Solving for Uz, Initial residual = 0.0855637, Final residual = 1.6443e-11, No Iterations 3
BiCGStab:  Solving for p, Initial residual = 0.247256, Final residual = 7.57472e-10, No Iterations 26
time step continuity errors : sum local = 0.0155645, global = 0.000531798, cumulative = -0.0284019
BiCGStab:  Solving for p, Initial residual = 0.167943, Final residual = 8.1082e-10, No Iterations 26
time step continuity errors : sum local = 0.015287, global = -0.00107037, cumulative = -0.0294722
BiCGStab:  Solving for h, Initial residual = 0.0848023, Final residual = 3.46369e-09, No Iterations 2
ExecutionTime = 0.8 s  ClockTime = 1 s

Flux divergence min = 0 max = 148.726 average: 1.41822
Mach number min = 1.35243 max = 1.9339
Field U magnitude min = 0 max = 650.826
Field p min = 76005.4 max = 144342
Field rho min = 0.829252 max = 1.6525
Field T min = 247.363 max = 336.209
Time = 12

BiCGStab:  Solving for Ux, Initial residual = 0.0682852, Final residual = 7.3369e-09, No Iterations 2
BiCGStab:  Solving for Uz, Initial residual = 0.0816601, Final residual = 1.49992e-11, No Iterations 3
BiCGStab:  Solving for p, Initial residual = 0.234695, Final residual = 9.91535e-10, No Iterations 26
time step continuity errors : sum local = 0.0154841, global = 0.000498611, cumulative = -0.0289736
BiCGStab:  Solving for p, Initial residual = 0.159862, Final residual = 2.19921e-09, No Iterations 26
time step continuity errors : sum local = 0.0152185, global = -0.00105364, cumulative = -0.0300273
BiCGStab:  Solving for h, Initial residual = 0.0790248, Final residual = 3.45324e-09, No Iterations 2
ExecutionTime = 0.87 s  ClockTime = 1 s

Flux divergence min = 0 max = 104.421 average: 1.40174
Mach number min = 1.341 max = 1.94436
Field U magnitude min = 0 max = 651.103
Field p min = 76280.5 max = 145617
Field rho min = 0.824479 max = 1.66517
Field T min = 244.139 max = 338.37
Time = 13

BiCGStab:  Solving for Ux, Initial residual = 0.0646036, Final residual = 7.0262e-09, No Iterations 2
BiCGStab:  Solving for Uz, Initial residual = 0.0776954, Final residual = 1.39062e-11, No Iterations 3
BiCGStab:  Solving for p, Initial residual = 0.224703, Final residual = 4.27736e-09, No Iterations 25
time step continuity errors : sum local = 0.0153777, global = 0.000480804, cumulative = -0.0295465
BiCGStab:  Solving for p, Initial residual = 0.15333, Final residual = 3.8896e-09, No Iterations 25
time step continuity errors : sum local = 0.0151226, global = -0.00102502, cumulative = -0.0305715
BiCGStab:  Solving for h, Initial residual = 0.0744536, Final residual = 3.34499e-09, No Iterations 2
ExecutionTime = 0.93 s  ClockTime = 1 s

Flux divergence min = 0 max = 90.5537 average: 1.38178
Mach number min = 1.33471 max = 1.96002
Field U magnitude min = 0 max = 652.866
Field p min = 76699.3 max = 146715
Field rho min = 0.820977 max = 1.66028
Field T min = 241.16 max = 342.032
Time = 14

BiCGStab:  Solving for Ux, Initial residual = 0.0612553, Final residual = 6.65204e-09, No Iterations 2
BiCGStab:  Solving for Uz, Initial residual = 0.0737154, Final residual = 1.24459e-11, No Iterations 3
BiCGStab:  Solving for p, Initial residual = 0.216204, Final residual = 6.56628e-09, No Iterations 24
time step continuity errors : sum local = 0.0152668, global = 0.000459646, cumulative = -0.0301118
BiCGStab:  Solving for p, Initial residual = 0.14767, Final residual = 4.32982e-09, No Iterations 24
time step continuity errors : sum local = 0.0150185, global = -0.000998876, cumulative = -0.0311107
BiCGStab:  Solving for h, Initial residual = 0.0706063, Final residual = 3.18029e-09, No Iterations 2
ExecutionTime = 0.99 s  ClockTime = 1 s

Flux divergence min = 0 max = 77.3806 average: 1.35864
Mach number min = 1.3294 max = 1.96976
Field U magnitude min = 0 max = 653.738
Field p min = 76946.6 max = 147656
Field rho min = 0.815427 max = 1.66109
Field T min = 238.226 max = 346.58
Time = 15

BiCGStab:  Solving for Ux, Initial residual = 0.0579443, Final residual = 6.21825e-09, No Iterations 2
BiCGStab:  Solving for Uz, Initial residual = 0.0701205, Final residual = 1.12739e-11, No Iterations 3
BiCGStab:  Solving for p, Initial residual = 0.20817, Final residual = 2.5654e-09, No Iterations 24
time step continuity errors : sum local = 0.0151427, global = 0.000441835, cumulative = -0.0306689
BiCGStab:  Solving for p, Initial residual = 0.142364, Final residual = 9.60661e-09, No Iterations 23
time step continuity errors : sum local = 0.0148944, global = -0.000970552, cumulative = -0.0316394
BiCGStab:  Solving for h, Initial residual = 0.0672189, Final residual = 3.00657e-09, No Iterations 2
ExecutionTime = 1.05 s  ClockTime = 1 s

Flux divergence min = 0 max = 65.5887 average: 1.33513
Mach number min = 1.32362 max = 1.98416
Field U magnitude min = 0 max = 655.081
Field p min = 76917.9 max = 148417
Field rho min = 0.806794 max = 1.64488
Field T min = 235.628 max = 350.739
Time = 16

BiCGStab:  Solving for Ux, Initial residual = 0.0547751, Final residual = 5.74723e-09, No Iterations 2
BiCGStab:  Solving for Uz, Initial residual = 0.0666258, Final residual = 9.1642e-09, No Iterations 2
BiCGStab:  Solving for p, Initial residual = 0.200236, Final residual = 3.78652e-09, No Iterations 23
time step continuity errors : sum local = 0.0149739, global = 0.000419629, cumulative = -0.0312198
BiCGStab:  Solving for p, Initial residual = 0.137002, Final residual = 3.82426e-09, No Iterations 23
time step continuity errors : sum local = 0.0147264, global = -0.000945645, cumulative = -0.0321654
BiCGStab:  Solving for h, Initial residual = 0.064041, Final residual = 2.87525e-09, No Iterations 2
ExecutionTime = 1.11 s  ClockTime = 1 s

Flux divergence min = 0 max = 60.3331 average: 1.3113
Mach number min = 1.31862 max = 1.99751
Field U magnitude min = 0 max = 655.381
Field p min = 76640.3 max = 148996
Field rho min = 0.795383 max = 1.6209
Field T min = 233.044 max = 354.627
Time = 17

BiCGStab:  Solving for Ux, Initial residual = 0.0518277, Final residual = 5.25336e-09, No Iterations 2
BiCGStab:  Solving for Uz, Initial residual = 0.0637832, Final residual = 7.85264e-09, No Iterations 2
BiCGStab:  Solving for p, Initial residual = 0.19237, Final residual = 8.94325e-09, No Iterations 23
time step continuity errors : sum local = 0.0147529, global = 0.000402685, cumulative = -0.0317628
BiCGStab:  Solving for p, Initial residual = 0.131896, Final residual = 5.2206e-09, No Iterations 23
time step continuity errors : sum local = 0.0145118, global = -0.00091659, cumulative = -0.0326793
BiCGStab:  Solving for h, Initial residual = 0.0611906, Final residual = 2.77805e-09, No Iterations 2
ExecutionTime = 1.17 s  ClockTime = 1 s

Flux divergence min = 0 max = 75.1654 average: 1.29014
Mach number min = 1.31381 max = 2.00692
Field U magnitude min = 0 max = 656.373
Field p min = 76263.5 max = 149424
Field rho min = 0.782797 max = 1.60701
Field T min = 230.8 max = 358.55
Time = 18

BiCGStab:  Solving for Ux, Initial residual = 0.0490918, Final residual = 4.84017e-09, No Iterations 2
BiCGStab:  Solving for Uz, Initial residual = 0.0611307, Final residual = 6.73166e-09, No Iterations 2
BiCGStab:  Solving for p, Initial residual = 0.184504, Final residual = 7.25175e-10, No Iterations 24
time step continuity errors : sum local = 0.0144623, global = 0.000385051, cumulative = -0.0322943
BiCGStab:  Solving for p, Initial residual = 0.12661, Final residual = 6.82923e-10, No Iterations 24
time step continuity errors : sum local = 0.0142318, global = -0.00088855, cumulative = -0.0331828
BiCGStab:  Solving for h, Initial residual = 0.0585604, Final residual = 2.72284e-09, No Iterations 2
ExecutionTime = 1.23 s  ClockTime = 1 s

Flux divergence min = 0 max = 81.3534 average: 1.26535
Mach number min = 1.30908 max = 2.02442
Field U magnitude min = 0 max = 657.123
Field p min = 75939.5 max = 149761
Field rho min = 0.770703 max = 1.60496
Field T min = 228.567 max = 362.814
Time = 19

BiCGStab:  Solving for Ux, Initial residual = 0.0467239, Final residual = 4.47273e-09, No Iterations 2
BiCGStab:  Solving for Uz, Initial residual = 0.0588126, Final residual = 5.71639e-09, No Iterations 2
BiCGStab:  Solving for p, Initial residual = 0.176931, Final residual = 8.03718e-09, No Iterations 23
time step continuity errors : sum local = 0.0140961, global = 0.000371018, cumulative = -0.0328118
BiCGStab:  Solving for p, Initial residual = 0.121534, Final residual = 2.96752e-11, No Iterations 25
time step continuity errors : sum local = 0.0138682, global = -0.00085842, cumulative = -0.0336702
BiCGStab:  Solving for h, Initial residual = 0.0562108, Final residual = 2.69331e-09, No Iterations 2
ExecutionTime = 1.29 s  ClockTime = 1 s

Flux divergence min = 0 max = 75.7506 average: 1.23822
Mach number min = 1.30471 max = 2.03209
Field U magnitude min = 0 max = 658.169
Field p min = 75756.9 max = 150065
Field rho min = 0.760169 max = 1.62098
Field T min = 226.437 max = 367.55
Time = 20

BiCGStab:  Solving for Ux, Initial residual = 0.0446032, Final residual = 4.19972e-09, No Iterations 2
BiCGStab:  Solving for Uz, Initial residual = 0.0567991, Final residual = 5.13371e-09, No Iterations 2
BiCGStab:  Solving for p, Initial residual = 0.169852, Final residual = 5.25475e-09, No Iterations 24
time step continuity errors : sum local = 0.013651, global = 0.000356041, cumulative = -0.0333142
BiCGStab:  Solving for p, Initial residual = 0.116897, Final residual = 4.12778e-09, No Iterations 24
time step continuity errors : sum local = 0.0134305, global = -0.000830274, cumulative = -0.0341445
BiCGStab:  Solving for h, Initial residual = 0.0540953, Final residual = 2.66479e-09, No Iterations 2
ExecutionTime = 1.34 s  ClockTime = 1 s

Flux divergence min = 0 max = 61.1749 average: 1.21205
Mach number min = 1.30114 max = 2.04402
Field U magnitude min = 0 max = 658.856
Field p min = 75699.3 max = 150369
Field rho min = 0.751217 max = 1.63917
Field T min = 224.634 max = 372.682
Time = 21

BiCGStab:  Solving for Ux, Initial residual = 0.0426747, Final residual = 4.02227e-09, No Iterations 2
BiCGStab:  Solving for Uz, Initial residual = 0.055091, Final residual = 5.40789e-09, No Iterations 2
BiCGStab:  Solving for p, Initial residual = 0.163927, Final residual = 5.38476e-09, No Iterations 24
time step continuity errors : sum local = 0.01317, global = 0.000346969, cumulative = -0.0337975
BiCGStab:  Solving for p, Initial residual = 0.113036, Final residual = 4.10843e-09, No Iterations 24
time step continuity errors : sum local = 0.0129628, global = -0.000799685, cumulative = -0.0345972
BiCGStab:  Solving for h, Initial residual = 0.0521084, Final residual = 2.6227e-09, No Iterations 2
ExecutionTime = 1.4 s  ClockTime = 1 s

Flux divergence min = 0 max = 43.8142 average: 1.1881
Mach number min = 1.2987 max = 2.05571
Field U magnitude min = 0 max = 660.844
Field p min = 75708.8 max = 150681
Field rho min = 0.743433 max = 1.6579
Field T min = 222.85 max = 378.035
Time = 22

BiCGStab:  Solving for Ux, Initial residual = 0.0409919, Final residual = 3.91166e-09, No Iterations 2
BiCGStab:  Solving for Uz, Initial residual = 0.0531574, Final residual = 6.15574e-09, No Iterations 2
BiCGStab:  Solving for p, Initial residual = 0.158722, Final residual = 2.62256e-09, No Iterations 24
time step continuity errors : sum local = 0.012728, global = 0.000345738, cumulative = -0.0342515
BiCGStab:  Solving for p, Initial residual = 0.109549, Final residual = 1.92524e-09, No Iterations 24
time step continuity errors : sum local = 0.0125352, global = -0.000764035, cumulative = -0.0350155
BiCGStab:  Solving for h, Initial residual = 0.0503849, Final residual = 2.56009e-09, No Iterations 2
ExecutionTime = 1.46 s  ClockTime = 1 s

Flux divergence min = 0 max = 36.4129 average: 1.16669
Mach number min = 1.29746 max = 2.06224
Field U magnitude min = 0 max = 661.992
Field p min = 75719.4 max = 150996
Field rho min = 0.736474 max = 1.67663
Field T min = 221.242 max = 383.452
Time = 23

BiCGStab:  Solving for Ux, Initial residual = 0.0394597, Final residual = 3.89192e-09, No Iterations 2
BiCGStab:  Solving for Uz, Initial residual = 0.0509806, Final residual = 4.25147e-09, No Iterations 2
BiCGStab:  Solving for p, Initial residual = 0.15313, Final residual = 1.91954e-09, No Iterations 24
time step continuity errors : sum local = 0.012329, global = 0.000334931, cumulative = -0.0346806
BiCGStab:  Solving for p, Initial residual = 0.105721, Final residual = 1.43072e-09, No Iterations 24
time step continuity errors : sum local = 0.0121554, global = -0.00073809, cumulative = -0.0354186
BiCGStab:  Solving for h, Initial residual = 0.0487874, Final residual = 2.48752e-09, No Iterations 2
ExecutionTime = 1.52 s  ClockTime = 1 s

Flux divergence min = 0 max = 33.6762 average: 1.14946
Mach number min = 1.29754 max = 2.07776
Field U magnitude min = 0 max = 662.224
Field p min = 75712 max = 151307
Field rho min = 0.730459 max = 1.69445
Field T min = 219.685 max = 388.86
Time = 24

BiCGStab:  Solving for Ux, Initial residual = 0.037982, Final residual = 3.95978e-09, No Iterations 2
BiCGStab:  Solving for Uz, Initial residual = 0.0489043, Final residual = 4.36163e-09, No Iterations 2
BiCGStab:  Solving for p, Initial residual = 0.147858, Final residual = 1.91449e-09, No Iterations 24
time step continuity errors : sum local = 0.0119743, global = 0.00032349, cumulative = -0.0350952
BiCGStab:  Solving for p, Initial residual = 0.102156, Final residual = 1.47474e-09, No Iterations 24
time step continuity errors : sum local = 0.0118141, global = -0.000714125, cumulative = -0.0358093
BiCGStab:  Solving for h, Initial residual = 0.0472642, Final residual = 2.4069e-09, No Iterations 2
ExecutionTime = 1.58 s  ClockTime = 1 s

Flux divergence min = 0 max = 33.2172 average: 1.13671
Mach number min = 1.29887 max = 2.08279
Field U magnitude min = 0 max = 663.915
Field p min = 75688.9 max = 151607
Field rho min = 0.724314 max = 1.70987
Field T min = 218.177 max = 394.185
Time = 25

BiCGStab:  Solving for Ux, Initial residual = 0.0365847, Final residual = 4.13471e-09, No Iterations 2
BiCGStab:  Solving for Uz, Initial residual = 0.0468341, Final residual = 5.14209e-09, No Iterations 2
BiCGStab:  Solving for p, Initial residual = 0.14287, Final residual = 2.25416e-09, No Iterations 24
time step continuity errors : sum local = 0.0116353, global = 0.000323786, cumulative = -0.0354855
BiCGStab:  Solving for p, Initial residual = 0.0987145, Final residual = 1.6849e-09, No Iterations 24
time step continuity errors : sum local = 0.0114846, global = -0.000682617, cumulative = -0.0361681
BiCGStab:  Solving for h, Initial residual = 0.0457688, Final residual = 2.32992e-09, No Iterations 2
ExecutionTime = 1.64 s  ClockTime = 1 s

Flux divergence min = 0 max = 32.5472 average: 1.12796
Mach number min = 1.30095 max = 2.09362
Field U magnitude min = 0 max = 665.127
Field p min = 75641.3 max = 151895
Field rho min = 0.718403 max = 1.72116
Field T min = 216.97 max = 399.43
Time = 26

BiCGStab:  Solving for Ux, Initial residual = 0.0352108, Final residual = 4.31426e-09, No Iterations 2
BiCGStab:  Solving for Uz, Initial residual = 0.0448995, Final residual = 6.89892e-09, No Iterations 2
BiCGStab:  Solving for p, Initial residual = 0.137252, Final residual = 1.09826e-09, No Iterations 24
time step continuity errors : sum local = 0.0112745, global = 0.000323081, cumulative = -0.035845
BiCGStab:  Solving for p, Initial residual = 0.0948582, Final residual = 8.03751e-10, No Iterations 24
time step continuity errors : sum local = 0.0111297, global = -0.000654485, cumulative = -0.0364995
BiCGStab:  Solving for h, Initial residual = 0.0442702, Final residual = 2.25206e-09, No Iterations 2
ExecutionTime = 1.7 s  ClockTime = 2 s

Flux divergence min = 0 max = 31.8222 average: 1.11824
Mach number min = 1.30336 max = 2.10347
Field U magnitude min = 0 max = 666.864
Field p min = 75572.2 max = 152170
Field rho min = 0.713004 max = 1.72693
Field T min = 215.622 max = 404.578
Time = 27

BiCGStab:  Solving for Ux, Initial residual = 0.0337539, Final residual = 4.37791e-09, No Iterations 2
BiCGStab:  Solving for Uz, Initial residual = 0.0432994, Final residual = 1.28662e-11, No Iterations 3
BiCGStab:  Solving for p, Initial residual = 0.13194, Final residual = 3.51493e-09, No Iterations 24
time step continuity errors : sum local = 0.0108743, global = 0.000326978, cumulative = -0.0361725
BiCGStab:  Solving for p, Initial residual = 0.0912836, Final residual = 3.85957e-09, No Iterations 24
time step continuity errors : sum local = 0.0107316, global = -0.000624927, cumulative = -0.0367975
BiCGStab:  Solving for h, Initial residual = 0.0428063, Final residual = 2.17355e-09, No Iterations 2
ExecutionTime = 1.76 s  ClockTime = 2 s

Flux divergence min = 0 max = 33.7616 average: 1.10246
Mach number min = 1.30593 max = 2.10841
Field U magnitude min = 0 max = 667.558
Field p min = 75490.8 max = 152432
Field rho min = 0.708672 max = 1.72671
Field T min = 214.554 max = 409.576
Time = 28

BiCGStab:  Solving for Ux, Initial residual = 0.032326, Final residual = 4.23464e-09, No Iterations 2
BiCGStab:  Solving for Uz, Initial residual = 0.0418662, Final residual = 9.00758e-09, No Iterations 2
BiCGStab:  Solving for p, Initial residual = 0.126898, Final residual = 8.60473e-09, No Iterations 24
time step continuity errors : sum local = 0.0104188, global = 0.000316609, cumulative = -0.0364809
BiCGStab:  Solving for p, Initial residual = 0.0878996, Final residual = 6.1564e-09, No Iterations 24
time step continuity errors : sum local = 0.0102745, global = -0.000608826, cumulative = -0.0370897
BiCGStab:  Solving for h, Initial residual = 0.0412981, Final residual = 2.12102e-09, No Iterations 2
ExecutionTime = 1.82 s  ClockTime = 2 s

Flux divergence min = 0 max = 37.4933 average: 1.07712
Mach number min = 1.30877 max = 2.12384
Field U magnitude min = 0 max = 668.016
Field p min = 75432.9 max = 152680
Field rho min = 0.706031 max = 1.71678
Field T min = 213.36 max = 414.306
Time = 29

BiCGStab:  Solving for Ux, Initial residual = 0.030938, Final residual = 3.97581e-09, No Iterations 2
BiCGStab:  Solving for Uz, Initial residual = 0.041049, Final residual = 6.8813e-09, No Iterations 2
BiCGStab:  Solving for p, Initial residual = 0.122721, Final residual = 6.66961e-10, No Iterations 25
time step continuity errors : sum local = 0.00994078, global = 0.000307296, cumulative = -0.0367824
BiCGStab:  Solving for p, Initial residual = 0.0850736, Final residual = 7.09325e-10, No Iterations 25
time step continuity errors : sum local = 0.0097969, global = -0.000592267, cumulative = -0.0373747
BiCGStab:  Solving for h, Initial residual = 0.0398687, Final residual = 2.08031e-09, No Iterations 2
ExecutionTime = 1.88 s  ClockTime = 2 s

Flux divergence min = 0 max = 40.1296 average: 1.04388
Mach number min = 1.31219 max = 2.12814
Field U magnitude min = 0 max = 670.543
Field p min = 75392 max = 152911
Field rho min = 0.705898 max = 1.70176
Field T min = 212.154 max = 418.616
Time = 30

BiCGStab:  Solving for Ux, Initial residual = 0.0296112, Final residual = 3.7504e-09, No Iterations 2
BiCGStab:  Solving for Uz, Initial residual = 0.0401042, Final residual = 7.16126e-09, No Iterations 2
BiCGStab:  Solving for p, Initial residual = 0.119666, Final residual = 4.40566e-10, No Iterations 25
time step continuity errors : sum local = 0.0094735, global = 0.000303382, cumulative = -0.0370713
BiCGStab:  Solving for p, Initial residual = 0.0831264, Final residual = 7.86469e-10, No Iterations 25
time step continuity errors : sum local = 0.009331, global = -0.00057104, cumulative = -0.0376423
BiCGStab:  Solving for h, Initial residual = 0.038548, Final residual = 2.02841e-09, No Iterations 2
ExecutionTime = 1.94 s  ClockTime = 2 s

Flux divergence min = 0 max = 41.4336 average: 1.00419
Mach number min = 1.31655 max = 2.1357
Field U magnitude min = 0 max = 671.608
Field p min = 75407.9 max = 153166
Field rho min = 0.709005 max = 1.68538
Field T min = 211.358 max = 422.322
Time = 31

BiCGStab:  Solving for Ux, Initial residual = 0.0283953, Final residual = 3.61943e-09, No Iterations 2
BiCGStab:  Solving for Uz, Initial residual = 0.038916, Final residual = 4.92421e-12, No Iterations 3
BiCGStab:  Solving for p, Initial residual = 0.116447, Final residual = 5.9969e-10, No Iterations 25
time step continuity errors : sum local = 0.00906765, global = 0.000264075, cumulative = -0.0373782
BiCGStab:  Solving for p, Initial residual = 0.0808775, Final residual = 4.93854e-10, No Iterations 25
time step continuity errors : sum local = 0.00894036, global = -0.000580634, cumulative = -0.0379589
BiCGStab:  Solving for h, Initial residual = 0.0373189, Final residual = 1.9539e-09, No Iterations 2
ExecutionTime = 2 s  ClockTime = 2 s

Flux divergence min = 0 max = 41.2415 average: 0.965041
Mach number min = 1.31854 max = 2.14298
Field U magnitude min = 0 max = 671.565
Field p min = 75482.7 max = 153458
Field rho min = 0.711311 max = 1.66868
Field T min = 210.382 max = 425.781
Time = 32

BiCGStab:  Solving for Ux, Initial residual = 0.0273686, Final residual = 3.46995e-09, No Iterations 2
BiCGStab:  Solving for Uz, Initial residual = 0.0375586, Final residual = 7.56454e-09, No Iterations 2
BiCGStab:  Solving for p, Initial residual = 0.113152, Final residual = 5.81104e-10, No Iterations 25
time step continuity errors : sum local = 0.0087365, global = 0.000246969, cumulative = -0.0377119
BiCGStab:  Solving for p, Initial residual = 0.0785715, Final residual = 3.55468e-10, No Iterations 25
time step continuity errors : sum local = 0.00861948, global = -0.000566542, cumulative = -0.0382784
BiCGStab:  Solving for h, Initial residual = 0.0362252, Final residual = 1.87177e-09, No Iterations 2
ExecutionTime = 2.07 s  ClockTime = 2 s

Flux divergence min = 0 max = 39.545 average: 0.927643
Mach number min = 1.30706 max = 2.14928
Field U magnitude min = 0 max = 672.83
Field p min = 75544.7 max = 153709
Field rho min = 0.715392 max = 1.6507
Field T min = 209.747 max = 429.372
Time = 33

BiCGStab:  Solving for Ux, Initial residual = 0.0264607, Final residual = 3.23416e-09, No Iterations 2
BiCGStab:  Solving for Uz, Initial residual = 0.0359205, Final residual = 2.91356e-09, No Iterations 2
BiCGStab:  Solving for p, Initial residual = 0.109009, Final residual = 5.76995e-10, No Iterations 25
time step continuity errors : sum local = 0.00844209, global = 0.000241389, cumulative = -0.0380371
BiCGStab:  Solving for p, Initial residual = 0.0756332, Final residual = 4.61664e-10, No Iterations 25
time step continuity errors : sum local = 0.00833105, global = -0.000542488, cumulative = -0.0385795
BiCGStab:  Solving for h, Initial residual = 0.0351973, Final residual = 1.80627e-09, No Iterations 2
ExecutionTime = 2.13 s  ClockTime = 2 s

Flux divergence min = 0 max = 53.0868 average: 0.895961
Mach number min = 1.29282 max = 2.16008
Field U magnitude min = 0 max = 673.139
Field p min = 75582.8 max = 153971
Field rho min = 0.723448 max = 1.6311
Field T min = 208.863 max = 432.289
Time = 34

BiCGStab:  Solving for Ux, Initial residual = 0.0257009, Final residual = 2.88755e-09, No Iterations 2
BiCGStab:  Solving for Uz, Initial residual = 0.0344909, Final residual = 2.91801e-09, No Iterations 2
BiCGStab:  Solving for p, Initial residual = 0.104437, Final residual = 6.51818e-10, No Iterations 25
time step continuity errors : sum local = 0.00816397, global = 0.000237379, cumulative = -0.0383422
BiCGStab:  Solving for p, Initial residual = 0.0724453, Final residual = 5.04171e-10, No Iterations 25
time step continuity errors : sum local = 0.00806007, global = -0.000518604, cumulative = -0.0388608
BiCGStab:  Solving for h, Initial residual = 0.0342907, Final residual = 1.76465e-09, No Iterations 2
ExecutionTime = 2.19 s  ClockTime = 2 s

Flux divergence min = 0 max = 87.4298 average: 0.873004
Mach number min = 1.27839 max = 2.1673
Field U magnitude min = 0 max = 673.198
Field p min = 75477.8 max = 154156
Field rho min = 0.736398 max = 1.61
Field T min = 208.03 max = 433.559
Time = 35

BiCGStab:  Solving for Ux, Initial residual = 0.0249742, Final residual = 2.5149e-09, No Iterations 2
BiCGStab:  Solving for Uz, Initial residual = 0.0331261, Final residual = 3.06867e-09, No Iterations 2
BiCGStab:  Solving for p, Initial residual = 0.10011, Final residual = 1.0175e-09, No Iterations 25
time step continuity errors : sum local = 0.00788182, global = 0.000225391, cumulative = -0.0386354
BiCGStab:  Solving for p, Initial residual = 0.0694896, Final residual = 9.98691e-09, No Iterations 24
time step continuity errors : sum local = 0.00778867, global = -0.0005042, cumulative = -0.0391396
BiCGStab:  Solving for h, Initial residual = 0.0333929, Final residual = 1.7085e-09, No Iterations 2
ExecutionTime = 2.25 s  ClockTime = 2 s

Flux divergence min = 0 max = 116.305 average: 0.859605
Mach number min = 1.26401 max = 2.17453
Field U magnitude min = 0 max = 671.584
Field p min = 75255.2 max = 154293
Field rho min = 0.754664 max = 1.58845
Field T min = 207.25 max = 433.764
Time = 36

BiCGStab:  Solving for Ux, Initial residual = 0.0242804, Final residual = 2.20471e-09, No Iterations 2
BiCGStab:  Solving for Uz, Initial residual = 0.0317797, Final residual = 3.1769e-09, No Iterations 2
BiCGStab:  Solving for p, Initial residual = 0.095645, Final residual = 1.80592e-09, No Iterations 25
time step continuity errors : sum local = 0.00758064, global = 0.000208893, cumulative = -0.0389307
BiCGStab:  Solving for p, Initial residual = 0.0664329, Final residual = 1.07306e-09, No Iterations 25
time step continuity errors : sum local = 0.00749608, global = -0.00049437, cumulative = -0.0394251
BiCGStab:  Solving for h, Initial residual = 0.0324408, Final residual = 1.65235e-09, No Iterations 2
ExecutionTime = 2.31 s  ClockTime = 2 s

Flux divergence min = 0 max = 125.271 average: 0.849255
Mach number min = 1.24966 max = 2.18329
Field U magnitude min = 0 max = 669.059
Field p min = 74604.7 max = 154556
Field rho min = 0.779072 max = 1.59133
Field T min = 206.437 max = 433.254
Time = 37

BiCGStab:  Solving for Ux, Initial residual = 0.0237394, Final residual = 1.98156e-09, No Iterations 2
BiCGStab:  Solving for Uz, Initial residual = 0.0308822, Final residual = 3.24447e-09, No Iterations 2
BiCGStab:  Solving for p, Initial residual = 0.0914509, Final residual = 1.30042e-09, No Iterations 25
time step continuity errors : sum local = 0.00730588, global = 0.000185973, cumulative = -0.0392391
BiCGStab:  Solving for p, Initial residual = 0.063551, Final residual = 1.08429e-09, No Iterations 25
time step continuity errors : sum local = 0.00723025, global = -0.000492767, cumulative = -0.0397318
BiCGStab:  Solving for h, Initial residual = 0.0315907, Final residual = 1.60395e-09, No Iterations 2
ExecutionTime = 2.37 s  ClockTime = 2 s

Flux divergence min = 0 max = 106.692 average: 0.840383
Mach number min = 1.23419 max = 2.19545
Field U magnitude min = 0 max = 665.736
Field p min = 73369.9 max = 154903
Field rho min = 0.809707 max = 1.5949
Field T min = 205.5 max = 433.435
Time = 38

BiCGStab:  Solving for Ux, Initial residual = 0.0231971, Final residual = 1.81658e-09, No Iterations 2
BiCGStab:  Solving for Uz, Initial residual = 0.0300589, Final residual = 3.48872e-09, No Iterations 2
BiCGStab:  Solving for p, Initial residual = 0.0877934, Final residual = 1.30114e-09, No Iterations 25
time step continuity errors : sum local = 0.00705294, global = 0.000175129, cumulative = -0.0395567
BiCGStab:  Solving for p, Initial residual = 0.0610475, Final residual = 1.03232e-09, No Iterations 25
time step continuity errors : sum local = 0.00698946, global = -0.00047978, cumulative = -0.0400365
BiCGStab:  Solving for h, Initial residual = 0.0308301, Final residual = 1.5462e-09, No Iterations 2
ExecutionTime = 2.43 s  ClockTime = 2 s

Flux divergence min = 0 max = 91.2011 average: 0.829042
Mach number min = 1.21935 max = 2.20465
Field U magnitude min = 0 max = 661.845
Field p min = 72397.1 max = 154934
Field rho min = 0.84521 max = 1.6481
Field T min = 204.598 max = 434.239
Time = 39

BiCGStab:  Solving for Ux, Initial residual = 0.0227044, Final residual = 1.69757e-09, No Iterations 2
BiCGStab:  Solving for Uz, Initial residual = 0.029408, Final residual = 4.86338e-09, No Iterations 2
BiCGStab:  Solving for p, Initial residual = 0.0840464, Final residual = 1.04155e-09, No Iterations 25
time step continuity errors : sum local = 0.00680841, global = 0.000156982, cumulative = -0.0398795
BiCGStab:  Solving for p, Initial residual = 0.0584305, Final residual = 8.49666e-10, No Iterations 25
time step continuity errors : sum local = 0.0067599, global = -0.0004738, cumulative = -0.0403533
BiCGStab:  Solving for h, Initial residual = 0.0300217, Final residual = 1.4968e-09, No Iterations 2
ExecutionTime = 2.49 s  ClockTime = 2 s

Flux divergence min = 0 max = 82.0515 average: 0.812543
Mach number min = 1.20527 max = 2.20885
Field U magnitude min = 0 max = 657.749
Field p min = 71495.3 max = 154819
Field rho min = 0.871796 max = 1.73766
Field T min = 203.67 max = 435.093
Time = 40

BiCGStab:  Solving for Ux, Initial residual = 0.0222029, Final residual = 1.64446e-09, No Iterations 2
BiCGStab:  Solving for Uz, Initial residual = 0.0289663, Final residual = 2.02917e-09, No Iterations 2
BiCGStab:  Solving for p, Initial residual = 0.081078, Final residual = 9.99826e-10, No Iterations 25
time step continuity errors : sum local = 0.00656803, global = 0.000137729, cumulative = -0.0402156
BiCGStab:  Solving for p, Initial residual = 0.0564215, Final residual = 7.19371e-10, No Iterations 25
time step continuity errors : sum local = 0.00653183, global = -0.000469039, cumulative = -0.0406846
BiCGStab:  Solving for h, Initial residual = 0.0292335, Final residual = 1.49453e-09, No Iterations 2
ExecutionTime = 2.55 s  ClockTime = 2 s

Flux divergence min = 0 max = 74.4083 average: 0.798242
Mach number min = 1.19175 max = 2.21464
Field U magnitude min = 0 max = 653.389
Field p min = 70325.9 max = 154751
Field rho min = 0.863951 max = 1.7837
Field T min = 203.068 max = 435.845
Time = 41

BiCGStab:  Solving for Ux, Initial residual = 0.0217718, Final residual = 1.73859e-09, No Iterations 2
BiCGStab:  Solving for Uz, Initial residual = 0.028433, Final residual = 1.87526e-09, No Iterations 2
BiCGStab:  Solving for p, Initial residual = 0.0784585, Final residual = 8.06768e-10, No Iterations 25
time step continuity errors : sum local = 0.0063578, global = 9.93831e-05, cumulative = -0.0405852
BiCGStab:  Solving for p, Initial residual = 0.05463, Final residual = 7.49268e-10, No Iterations 25
time step continuity errors : sum local = 0.0063321, global = -0.000481584, cumulative = -0.0410668
BiCGStab:  Solving for h, Initial residual = 0.0285462, Final residual = 1.81226e-09, No Iterations 2
ExecutionTime = 2.61 s  ClockTime = 2 s

Flux divergence min = 0 max = 66.92 average: 0.79042
Mach number min = 1.17883 max = 2.22571
Field U magnitude min = 0 max = 649.029
Field p min = 69388.1 max = 154882
Field rho min = 0.8567 max = 1.78518
Field T min = 202.298 max = 436.46
Time = 42

BiCGStab:  Solving for Ux, Initial residual = 0.0212567, Final residual = 2.97295e-09, No Iterations 2
BiCGStab:  Solving for Uz, Initial residual = 0.0275431, Final residual = 1.86412e-09, No Iterations 2
BiCGStab:  Solving for p, Initial residual = 0.075604, Final residual = 6.88029e-10, No Iterations 25
time step continuity errors : sum local = 0.00618274, global = 6.29344e-05, cumulative = -0.0410039
BiCGStab:  Solving for p, Initial residual = 0.0526769, Final residual = 9.78983e-10, No Iterations 25
time step continuity errors : sum local = 0.00615732, global = -0.000489601, cumulative = -0.0414935
BiCGStab:  Solving for h, Initial residual = 0.0279642, Final residual = 1.68197e-09, No Iterations 2
ExecutionTime = 2.67 s  ClockTime = 2 s

Flux divergence min = 0 max = 84.2246 average: 0.7802
Mach number min = 1.16601 max = 2.23268
Field U magnitude min = 0 max = 645.065
Field p min = 68502.3 max = 155189
Field rho min = 0.850471 max = 1.74908
Field T min = 201.457 max = 437.002
Time = 43

BiCGStab:  Solving for Ux, Initial residual = 0.0208388, Final residual = 4.8817e-09, No Iterations 2
BiCGStab:  Solving for Uz, Initial residual = 0.026897, Final residual = 1.89706e-09, No Iterations 2
BiCGStab:  Solving for p, Initial residual = 0.0729818, Final residual = 1.80975e-09, No Iterations 25
time step continuity errors : sum local = 0.00603794, global = 3.12603e-05, cumulative = -0.0414622
BiCGStab:  Solving for p, Initial residual = 0.0508619, Final residual = 1.55746e-09, No Iterations 25
time step continuity errors : sum local = 0.00600766, global = -0.000491669, cumulative = -0.0419539
BiCGStab:  Solving for h, Initial residual = 0.0274911, Final residual = 1.67677e-09, No Iterations 2
ExecutionTime = 2.73 s  ClockTime = 3 s

Flux divergence min = 0 max = 109.137 average: 0.775931
Mach number min = 1.15362 max = 2.23626
Field U magnitude min = 0 max = 642.144
Field p min = 67828.1 max = 155590
Field rho min = 0.84481 max = 1.68479
Field T min = 200.817 max = 437.911
Time = 44

BiCGStab:  Solving for Ux, Initial residual = 0.0204652, Final residual = 1.81382e-09, No Iterations 2
BiCGStab:  Solving for Uz, Initial residual = 0.0263178, Final residual = 1.93645e-09, No Iterations 2
BiCGStab:  Solving for p, Initial residual = 0.0710453, Final residual = 1.33633e-09, No Iterations 25
time step continuity errors : sum local = 0.00590005, global = 1.10636e-05, cumulative = -0.0419428
BiCGStab:  Solving for p, Initial residual = 0.0495713, Final residual = 9.57958e-10, No Iterations 25
time step continuity errors : sum local = 0.00586729, global = -0.000483022, cumulative = -0.0424259
BiCGStab:  Solving for h, Initial residual = 0.0270823, Final residual = 1.68516e-09, No Iterations 2
ExecutionTime = 2.79 s  ClockTime = 3 s

Flux divergence min = 0 max = 134.939 average: 0.775957
Mach number min = 1.14194 max = 2.24033
Field U magnitude min = 0 max = 640.611
Field p min = 67105.9 max = 156007
Field rho min = 0.839443 max = 1.60483
Field T min = 200.352 max = 438.812
Time = 45

BiCGStab:  Solving for Ux, Initial residual = 0.0200981, Final residual = 1.6098e-09, No Iterations 2
BiCGStab:  Solving for Uz, Initial residual = 0.0256073, Final residual = 1.9648e-09, No Iterations 2
BiCGStab:  Solving for p, Initial residual = 0.0691691, Final residual = 2.56935e-09, No Iterations 25
time step continuity errors : sum local = 0.00576652, global = -3.59845e-07, cumulative = -0.0424262
BiCGStab:  Solving for p, Initial residual = 0.0483018, Final residual = 2.02498e-09, No Iterations 25
time step continuity errors : sum local = 0.00573213, global = -0.000466424, cumulative = -0.0428926
BiCGStab:  Solving for h, Initial residual = 0.0267284, Final residual = 1.72315e-09, No Iterations 2
ExecutionTime = 2.85 s  ClockTime = 3 s

Flux divergence min = 0 max = 152.028 average: 0.779478
Mach number min = 1.13109 max = 2.24093
Field U magnitude min = 0 max = 639.679
Field p min = 66658.4 max = 156389
Field rho min = 0.834411 max = 1.60516
Field T min = 199.877 max = 439.673
Time = 46

BiCGStab:  Solving for Ux, Initial residual = 0.0198031, Final residual = 1.8238e-09, No Iterations 2
BiCGStab:  Solving for Uz, Initial residual = 0.0251185, Final residual = 1.98325e-09, No Iterations 2
BiCGStab:  Solving for p, Initial residual = 0.0674607, Final residual = 7.05078e-10, No Iterations 25
time step continuity errors : sum local = 0.00563992, global = -1.9272e-05, cumulative = -0.0429119
BiCGStab:  Solving for p, Initial residual = 0.0471601, Final residual = 5.59105e-10, No Iterations 25
time step continuity errors : sum local = 0.00560843, global = -0.000457623, cumulative = -0.0433695
BiCGStab:  Solving for h, Initial residual = 0.0264653, Final residual = 1.83199e-09, No Iterations 2
ExecutionTime = 2.92 s  ClockTime = 3 s

Flux divergence min = 0 max = 151.186 average: 0.779604
Mach number min = 1.121 max = 2.24802
Field U magnitude min = 0 max = 639.019
Field p min = 66426 max = 156688
Field rho min = 0.830008 max = 1.60937
Field T min = 199.132 max = 440.482
Time = 47

BiCGStab:  Solving for Ux, Initial residual = 0.0195205, Final residual = 1.34713e-09, No Iterations 2
BiCGStab:  Solving for Uz, Initial residual = 0.0243529, Final residual = 1.96027e-09, No Iterations 2
BiCGStab:  Solving for p, Initial residual = 0.065628, Final residual = 1.93221e-09, No Iterations 25
time step continuity errors : sum local = 0.0054959, global = 1.95501e-05, cumulative = -0.04335
BiCGStab:  Solving for p, Initial residual = 0.0459256, Final residual = 1.98378e-09, No Iterations 25
time step continuity errors : sum local = 0.00546873, global = -0.00039663, cumulative = -0.0437466
BiCGStab:  Solving for h, Initial residual = 0.0262707, Final residual = 2.05179e-09, No Iterations 2
ExecutionTime = 2.98 s  ClockTime = 3 s

Flux divergence min = 0 max = 138.142 average: 0.769759
Mach number min = 1.11173 max = 2.24956
Field U magnitude min = 0 max = 638.396
Field p min = 66303.4 max = 156394
Field rho min = 0.825265 max = 1.60594
Field T min = 198.333 max = 441.241
Time = 48

BiCGStab:  Solving for Ux, Initial residual = 0.0192925, Final residual = 1.3504e-09, No Iterations 2
BiCGStab:  Solving for Uz, Initial residual = 0.0237074, Final residual = 1.92506e-09, No Iterations 2
BiCGStab:  Solving for p, Initial residual = 0.0636835, Final residual = 4.80666e-09, No Iterations 25
time step continuity errors : sum local = 0.00534539, global = 6.88741e-05, cumulative = -0.0436777
BiCGStab:  Solving for p, Initial residual = 0.0445737, Final residual = 4.89608e-09, No Iterations 25
time step continuity errors : sum local = 0.00532958, global = -0.000331071, cumulative = -0.0440088
BiCGStab:  Solving for h, Initial residual = 0.0261248, Final residual = 1.98053e-09, No Iterations 2
ExecutionTime = 3.04 s  ClockTime = 3 s

Flux divergence min = 0 max = 114.664 average: 0.752408
Mach number min = 1.10333 max = 2.25038
Field U magnitude min = 0 max = 637.671
Field p min = 66085.9 max = 155900
Field rho min = 0.821489 max = 1.59837
Field T min = 197.576 max = 449.647
Time = 49

BiCGStab:  Solving for Ux, Initial residual = 0.0190366, Final residual = 1.37091e-09, No Iterations 2
BiCGStab:  Solving for Uz, Initial residual = 0.0231709, Final residual = 1.85367e-09, No Iterations 2
BiCGStab:  Solving for p, Initial residual = 0.0618655, Final residual = 2.89251e-09, No Iterations 25
time step continuity errors : sum local = 0.00520352, global = 0.000121735, cumulative = -0.0438871
BiCGStab:  Solving for p, Initial residual = 0.0433302, Final residual = 2.57481e-09, No Iterations 25
time step continuity errors : sum local = 0.00519678, global = -0.000268852, cumulative = -0.0441559
BiCGStab:  Solving for h, Initial residual = 0.026047, Final residual = 5.15057e-09, No Iterations 2
ExecutionTime = 3.1 s  ClockTime = 3 s

Flux divergence min = 0 max = 88.1065 average: 0.727432
Mach number min = 1.0961 max = 2.2468
Field U magnitude min = 0 max = 636.746
Field p min = 65930.4 max = 155559
Field rho min = 0.818123 max = 1.5915
Field T min = 197.367 max = 457.8
Time = 50

BiCGStab:  Solving for Ux, Initial residual = 0.018809, Final residual = 1.41062e-09, No Iterations 2
BiCGStab:  Solving for Uz, Initial residual = 0.0228038, Final residual = 1.80864e-09, No Iterations 2
BiCGStab:  Solving for p, Initial residual = 0.0603291, Final residual = 5.17106e-10, No Iterations 26
time step continuity errors : sum local = 0.00507859, global = 0.000166604, cumulative = -0.0439893
BiCGStab:  Solving for p, Initial residual = 0.0422722, Final residual = 4.5232e-10, No Iterations 26
time step continuity errors : sum local = 0.00506997, global = -0.000221059, cumulative = -0.0442104
BiCGStab:  Solving for h, Initial residual = 0.0259341, Final residual = 8.85317e-13, No Iterations 3
ExecutionTime = 3.16 s  ClockTime = 3 s

Flux divergence min = 0 max = 69.3193 average: 0.698772
Mach number min = 1.09026 max = 2.24183
Field U magnitude min = 0 max = 635.641
Field p min = 65769.4 max = 155562
Field rho min = 0.815534 max = 1.58879
Field T min = 197.367 max = 465.23
Time = 51

BiCGStab:  Solving for Ux, Initial residual = 0.0185877, Final residual = 1.44848e-09, No Iterations 2
BiCGStab:  Solving for Uz, Initial residual = 0.0223506, Final residual = 1.77388e-09, No Iterations 2
BiCGStab:  Solving for p, Initial residual = 0.059224, Final residual = 4.10006e-09, No Iterations 25
time step continuity errors : sum local = 0.00496693, global = 0.000190165, cumulative = -0.0440202
BiCGStab:  Solving for p, Initial residual = 0.0415243, Final residual = 3.56549e-09, No Iterations 25
time step continuity errors : sum local = 0.00494754, global = -0.000198053, cumulative = -0.0442183
BiCGStab:  Solving for h, Initial residual = 0.0257838, Final residual = 5.10831e-09, No Iterations 2
ExecutionTime = 3.22 s  ClockTime = 3 s

Flux divergence min = 0 max = 61.0913 average: 0.670903
Mach number min = 1.08567 max = 2.23421
Field U magnitude min = 0 max = 634.43
Field p min = 65623.5 max = 155845
Field rho min = 0.816402 max = 1.59066
Field T min = 197.882 max = 471.711
Time = 52

BiCGStab:  Solving for Ux, Initial residual = 0.0183343, Final residual = 1.48064e-09, No Iterations 2
BiCGStab:  Solving for Uz, Initial residual = 0.0217478, Final residual = 1.71743e-09, No Iterations 2
BiCGStab:  Solving for p, Initial residual = 0.058208, Final residual = 7.29192e-09, No Iterations 26
time step continuity errors : sum local = 0.00486569, global = 0.00019692, cumulative = -0.0440214
BiCGStab:  Solving for p, Initial residual = 0.0408171, Final residual = 6.17461e-09, No Iterations 26
time step continuity errors : sum local = 0.00483237, global = -0.00019336, cumulative = -0.0442147
BiCGStab:  Solving for h, Initial residual = 0.025589, Final residual = 3.86172e-09, No Iterations 2
ExecutionTime = 3.29 s  ClockTime = 3 s

Flux divergence min = 0 max = 61.4593 average: 0.650559
Mach number min = 1.08242 max = 2.22557
Field U magnitude min = 0 max = 633.416
Field p min = 65503.4 max = 156261
Field rho min = 0.813233 max = 1.59569
Field T min = 198.591 max = 476.96
Time = 53

BiCGStab:  Solving for Ux, Initial residual = 0.018013, Final residual = 1.51781e-09, No Iterations 2
BiCGStab:  Solving for Uz, Initial residual = 0.0212943, Final residual = 1.70276e-09, No Iterations 2
BiCGStab:  Solving for p, Initial residual = 0.0574962, Final residual = 8.10314e-09, No Iterations 25
time step continuity errors : sum local = 0.0047651, global = 0.00018129, cumulative = -0.0440334
BiCGStab:  Solving for p, Initial residual = 0.0403386, Final residual = 6.50527e-09, No Iterations 25
time step continuity errors : sum local = 0.00472653, global = -0.000208448, cumulative = -0.0442419
BiCGStab:  Solving for h, Initial residual = 0.0253641, Final residual = 5.13512e-09, No Iterations 2
ExecutionTime = 3.35 s  ClockTime = 3 s

Flux divergence min = 0 max = 67.4797 average: 0.635568
Mach number min = 1.08077 max = 2.21434
Field U magnitude min = 0 max = 632.396
Field p min = 65363.9 max = 156680
Field rho min = 0.810577 max = 1.60761
Field T min = 199.679 max = 482.302
Time = 54

BiCGStab:  Solving for Ux, Initial residual = 0.0177152, Final residual = 1.57026e-09, No Iterations 2
BiCGStab:  Solving for Uz, Initial residual = 0.0208606, Final residual = 1.72922e-09, No Iterations 2
BiCGStab:  Solving for p, Initial residual = 0.0564736, Final residual = 6.61474e-09, No Iterations 25
time step continuity errors : sum local = 0.00466454, global = 0.000160856, cumulative = -0.044081
BiCGStab:  Solving for p, Initial residual = 0.0396284, Final residual = 5.95647e-09, No Iterations 25
time step continuity errors : sum local = 0.0046266, global = -0.00022573, cumulative = -0.0443067
BiCGStab:  Solving for h, Initial residual = 0.0251529, Final residual = 9.1795e-09, No Iterations 2
ExecutionTime = 3.41 s  ClockTime = 3 s

Flux divergence min = 0 max = 88.4128 average: 0.621354
Mach number min = 1.08151 max = 2.20027
Field U magnitude min = 0 max = 631.419
Field p min = 65176.8 max = 157030
Field rho min = 0.808316 max = 1.63088
Field T min = 201.247 max = 486.761
Time = 55

BiCGStab:  Solving for Ux, Initial residual = 0.0173544, Final residual = 1.60007e-09, No Iterations 2
BiCGStab:  Solving for Uz, Initial residual = 0.0204895, Final residual = 1.76534e-09, No Iterations 2
BiCGStab:  Solving for p, Initial residual = 0.0555857, Final residual = 3.10216e-09, No Iterations 26
time step continuity errors : sum local = 0.004559, global = 0.00014346, cumulative = -0.0441633
BiCGStab:  Solving for p, Initial residual = 0.0389965, Final residual = 2.13564e-09, No Iterations 26
time step continuity errors : sum local = 0.00452263, global = -0.000237383, cumulative = -0.0444007
BiCGStab:  Solving for h, Initial residual = 0.024948, Final residual = 9.76702e-13, No Iterations 3
ExecutionTime = 3.47 s  ClockTime = 3 s

Flux divergence min = 0 max = 99.9621 average: 0.614016
Mach number min = 1.08476 max = 2.18403
Field U magnitude min = 0 max = 630.571
Field p min = 64967.6 max = 157295
Field rho min = 0.805968 max = 1.64904
Field T min = 203.272 max = 490.265
Time = 56

BiCGStab:  Solving for Ux, Initial residual = 0.0169628, Final residual = 1.63807e-09, No Iterations 2
BiCGStab:  Solving for Uz, Initial residual = 0.0200433, Final residual = 1.71413e-09, No Iterations 2
BiCGStab:  Solving for p, Initial residual = 0.0545626, Final residual = 7.04757e-09, No Iterations 25
time step continuity errors : sum local = 0.00446025, global = 0.000131507, cumulative = -0.0442692
BiCGStab:  Solving for p, Initial residual = 0.0382558, Final residual = 4.69666e-09, No Iterations 25
time step continuity errors : sum local = 0.00442542, global = -0.000242008, cumulative = -0.0445112
BiCGStab:  Solving for h, Initial residual = 0.0248023, Final residual = 3.09797e-09, No Iterations 2
ExecutionTime = 3.53 s  ClockTime = 3 s

Flux divergence min = 0 max = 97.8309 average: 0.611194
Mach number min = 1.09076 max = 2.16707
Field U magnitude min = 0 max = 629.889
Field p min = 64750.3 max = 157504
Field rho min = 0.803407 max = 1.65833
Field T min = 205.536 max = 492.655
Time = 57

BiCGStab:  Solving for Ux, Initial residual = 0.0166014, Final residual = 1.64312e-09, No Iterations 2
BiCGStab:  Solving for Uz, Initial residual = 0.0197593, Final residual = 1.72089e-09, No Iterations 2
BiCGStab:  Solving for p, Initial residual = 0.0541839, Final residual = 8.25798e-09, No Iterations 25
time step continuity errors : sum local = 0.00437489, global = 0.000108822, cumulative = -0.0444023
BiCGStab:  Solving for p, Initial residual = 0.037967, Final residual = 7.12706e-09, No Iterations 25
time step continuity errors : sum local = 0.00433913, global = -0.000254418, cumulative = -0.0446568
BiCGStab:  Solving for h, Initial residual = 0.0247245, Final residual = 1.9368e-09, No Iterations 2
ExecutionTime = 3.59 s  ClockTime = 3 s

Flux divergence min = 0 max = 84.2637 average: 0.608464
Mach number min = 1.09663 max = 2.15067
Field U magnitude min = 0 max = 629.34
Field p min = 64545.8 max = 157682
Field rho min = 0.800926 max = 1.6568
Field T min = 207.785 max = 493.298
Time = 58

BiCGStab:  Solving for Ux, Initial residual = 0.0162552, Final residual = 1.60269e-09, No Iterations 2
BiCGStab:  Solving for Uz, Initial residual = 0.0192497, Final residual = 1.93165e-09, No Iterations 2
BiCGStab:  Solving for p, Initial residual = 0.0531535, Final residual = 2.75488e-09, No Iterations 26
time step continuity errors : sum local = 0.00429164, global = 0.000114623, cumulative = -0.0445421
BiCGStab:  Solving for p, Initial residual = 0.0372679, Final residual = 7.75542e-09, No Iterations 25
time step continuity errors : sum local = 0.00425866, global = -0.000240541, cumulative = -0.0447827
BiCGStab:  Solving for h, Initial residual = 0.0246226, Final residual = 1.65675e-09, No Iterations 2
ExecutionTime = 3.65 s  ClockTime = 3 s

Flux divergence min = 0 max = 69.1313 average: 0.604458
Mach number min = 1.10725 max = 2.13571
Field U magnitude min = 0 max = 628.831
Field p min = 64328.2 max = 157851
Field rho min = 0.798425 max = 1.64549
Field T min = 209.822 max = 491.453
Time = 59

BiCGStab:  Solving for Ux, Initial residual = 0.0159713, Final residual = 1.66128e-09, No Iterations 2
BiCGStab:  Solving for Uz, Initial residual = 0.0191175, Final residual = 1.72724e-09, No Iterations 2
BiCGStab:  Solving for p, Initial residual = 0.0527353, Final residual = 2.04586e-09, No Iterations 26
time step continuity errors : sum local = 0.00423362, global = 6.54605e-05, cumulative = -0.0447172
BiCGStab:  Solving for p, Initial residual = 0.036966, Final residual = 8.99236e-09, No Iterations 25
time step continuity errors : sum local = 0.00420085, global = -0.000277669, cumulative = -0.0449949
BiCGStab:  Solving for h, Initial residual = 0.0245468, Final residual = 1.48071e-09, No Iterations 2
ExecutionTime = 3.71 s  ClockTime = 4 s

Flux divergence min = 0 max = 72.3612 average: 0.605016
Mach number min = 1.12105 max = 2.12261
Field U magnitude min = 0 max = 628.427
Field p min = 64115.4 max = 158094
Field rho min = 0.796193 max = 1.63691
Field T min = 211.551 max = 488.155
Time = 60

BiCGStab:  Solving for Ux, Initial residual = 0.0156645, Final residual = 1.69398e-09, No Iterations 2
BiCGStab:  Solving for Uz, Initial residual = 0.018658, Final residual = 1.85365e-09, No Iterations 2
BiCGStab:  Solving for p, Initial residual = 0.0516863, Final residual = 2.18669e-09, No Iterations 26
time step continuity errors : sum local = 0.00417658, global = 6.73568e-05, cumulative = -0.0449275
BiCGStab:  Solving for p, Initial residual = 0.0362187, Final residual = 1.74292e-09, No Iterations 26
time step continuity errors : sum local = 0.00414468, global = -0.000263836, cumulative = -0.0451914
BiCGStab:  Solving for h, Initial residual = 0.0244584, Final residual = 1.37196e-09, No Iterations 2
ExecutionTime = 3.77 s  ClockTime = 4 s

Flux divergence min = 0 max = 74.3726 average: 0.598915
Mach number min = 1.13815 max = 2.11135
Field U magnitude min = 0 max = 628.147
Field p min = 63895.7 max = 157538
Field rho min = 0.794125 max = 1.62017
Field T min = 212.981 max = 485.238
Time = 61

BiCGStab:  Solving for Ux, Initial residual = 0.0153864, Final residual = 1.70547e-09, No Iterations 2
BiCGStab:  Solving for Uz, Initial residual = 0.018289, Final residual = 1.83048e-09, No Iterations 2
BiCGStab:  Solving for p, Initial residual = 0.0508095, Final residual = 3.64289e-09, No Iterations 26
time step continuity errors : sum local = 0.00412987, global = 6.70397e-05, cumulative = -0.0451243
BiCGStab:  Solving for p, Initial residual = 0.0356086, Final residual = 2.44713e-09, No Iterations 26
time step continuity errors : sum local = 0.00409941, global = -0.000252222, cumulative = -0.0453766
BiCGStab:  Solving for h, Initial residual = 0.0243697, Final residual = 1.42568e-09, No Iterations 2
ExecutionTime = 3.83 s  ClockTime = 4 s

Flux divergence min = 0 max = 52.5908 average: 0.595968
Mach number min = 1.15924 max = 2.10165
Field U magnitude min = 0 max = 627.994
Field p min = 63748.3 max = 157226
Field rho min = 0.792284 max = 1.60206
Field T min = 214.174 max = 482.99
Time = 62

BiCGStab:  Solving for Ux, Initial residual = 0.0151251, Final residual = 1.49316e-09, No Iterations 2
BiCGStab:  Solving for Uz, Initial residual = 0.01823, Final residual = 1.75385e-09, No Iterations 2
BiCGStab:  Solving for p, Initial residual = 0.0504396, Final residual = 3.95707e-09, No Iterations 26
time step continuity errors : sum local = 0.00408576, global = 5.16414e-05, cumulative = -0.0453249
BiCGStab:  Solving for p, Initial residual = 0.0353755, Final residual = 3.97732e-09, No Iterations 26
time step continuity errors : sum local = 0.00405309, global = -0.000255313, cumulative = -0.0455802
BiCGStab:  Solving for h, Initial residual = 0.0242312, Final residual = 7.13376e-13, No Iterations 3
ExecutionTime = 3.89 s  ClockTime = 4 s

Flux divergence min = 0 max = 51.8956 average: 0.586587
Mach number min = 1.17821 max = 2.09317
Field U magnitude min = 0 max = 627.951
Field p min = 63631 max = 157569
Field rho min = 0.790545 max = 1.59203
Field T min = 215.197 max = 480.414
Time = 63

BiCGStab:  Solving for Ux, Initial residual = 0.0148497, Final residual = 1.46701e-09, No Iterations 2
BiCGStab:  Solving for Uz, Initial residual = 0.0180942, Final residual = 2.16523e-09, No Iterations 2
BiCGStab:  Solving for p, Initial residual = 0.049923, Final residual = 2.29351e-09, No Iterations 26
time step continuity errors : sum local = 0.00403133, global = 4.89712e-05, cumulative = -0.0455313
BiCGStab:  Solving for p, Initial residual = 0.0350425, Final residual = 2.27778e-09, No Iterations 26
time step continuity errors : sum local = 0.00399879, global = -0.000248107, cumulative = -0.0457794
BiCGStab:  Solving for h, Initial residual = 0.024198, Final residual = 3.78542e-09, No Iterations 2
ExecutionTime = 3.96 s  ClockTime = 4 s

Flux divergence min = 0 max = 50.9552 average: 0.57992
Mach number min = 1.19177 max = 2.08563
Field U magnitude min = 0 max = 628.011
Field p min = 63516.9 max = 157548
Field rho min = 0.789086 max = 1.59156
Field T min = 216.111 max = 478.105
Time = 64

BiCGStab:  Solving for Ux, Initial residual = 0.0145565, Final residual = 1.59969e-09, No Iterations 2
BiCGStab:  Solving for Uz, Initial residual = 0.0180039, Final residual = 1.87938e-09, No Iterations 2
BiCGStab:  Solving for p, Initial residual = 0.0495322, Final residual = 4.62951e-09, No Iterations 26
time step continuity errors : sum local = 0.00397894, global = 4.43641e-05, cumulative = -0.045735
BiCGStab:  Solving for p, Initial residual = 0.0348018, Final residual = 7.52226e-09, No Iterations 25
time step continuity errors : sum local = 0.00394587, global = -0.000243982, cumulative = -0.045979
BiCGStab:  Solving for h, Initial residual = 0.0241114, Final residual = 2.59504e-09, No Iterations 2
ExecutionTime = 4.02 s  ClockTime = 4 s

Flux divergence min = 0 max = 49.4244 average: 0.573136
Mach number min = 1.20887 max = 2.07858
Field U magnitude min = 0 max = 628.109
Field p min = 63465 max = 157489
Field rho min = 0.787607 max = 1.6059
Field T min = 216.995 max = 476.227
Time = 65

BiCGStab:  Solving for Ux, Initial residual = 0.0142431, Final residual = 1.76509e-09, No Iterations 2
BiCGStab:  Solving for Uz, Initial residual = 0.0177524, Final residual = 1.61731e-09, No Iterations 2
BiCGStab:  Solving for p, Initial residual = 0.0490501, Final residual = 5.76145e-09, No Iterations 26
time step continuity errors : sum local = 0.00392205, global = 4.66386e-05, cumulative = -0.0459323
BiCGStab:  Solving for p, Initial residual = 0.0344712, Final residual = 8.63678e-09, No Iterations 26
time step continuity errors : sum local = 0.00388639, global = -0.000235401, cumulative = -0.0461677
BiCGStab:  Solving for h, Initial residual = 0.0240871, Final residual = 2.41744e-09, No Iterations 2
ExecutionTime = 4.08 s  ClockTime = 4 s

Flux divergence min = 0 max = 46.9526 average: 0.564812
Mach number min = 1.22103 max = 2.07154
Field U magnitude min = 0 max = 628.21
Field p min = 63423.1 max = 157474
Field rho min = 0.786562 max = 1.61795
Field T min = 217.95 max = 473.747
Time = 66

BiCGStab:  Solving for Ux, Initial residual = 0.0139245, Final residual = 2.65566e-09, No Iterations 2
BiCGStab:  Solving for Uz, Initial residual = 0.0172611, Final residual = 1.53474e-09, No Iterations 2
BiCGStab:  Solving for p, Initial residual = 0.0482866, Final residual = 6.47507e-09, No Iterations 26
time step continuity errors : sum local = 0.00386541, global = 3.80469e-05, cumulative = -0.0461297
BiCGStab:  Solving for p, Initial residual = 0.0339499, Final residual = 4.43874e-09, No Iterations 26
time step continuity errors : sum local = 0.00382871, global = -0.000236611, cumulative = -0.0463663
BiCGStab:  Solving for h, Initial residual = 0.0240566, Final residual = 2.41397e-09, No Iterations 2
ExecutionTime = 4.15 s  ClockTime = 4 s

Flux divergence min = 0 max = 45.1141 average: 0.556097
Mach number min = 1.23496 max = 2.06406
Field U magnitude min = 0 max = 628.295
Field p min = 63397.3 max = 157654
Field rho min = 0.785685 max = 1.62714
Field T min = 219.083 max = 471.065
Time = 67

BiCGStab:  Solving for Ux, Initial residual = 0.0136147, Final residual = 4.46651e-09, No Iterations 2
BiCGStab:  Solving for Uz, Initial residual = 0.0169842, Final residual = 1.43275e-09, No Iterations 2
BiCGStab:  Solving for p, Initial residual = 0.0475488, Final residual = 7.34979e-09, No Iterations 28
time step continuity errors : sum local = 0.00381067, global = 3.29213e-05, cumulative = -0.0463334
BiCGStab:  Solving for p, Initial residual = 0.0334099, Final residual = 9.55213e-09, No Iterations 27
time step continuity errors : sum local = 0.0037715, global = -0.000234768, cumulative = -0.0465682
BiCGStab:  Solving for h, Initial residual = 0.0239982, Final residual = 2.43413e-09, No Iterations 2
ExecutionTime = 4.21 s  ClockTime = 4 s

Flux divergence min = 0 max = 42.7211 average: 0.548532
Mach number min = 1.2493 max = 2.05564
Field U magnitude min = 0 max = 628.361
Field p min = 63388.6 max = 157909
Field rho min = 0.785475 max = 1.63351
Field T min = 220.503 max = 468.206
Time = 68

BiCGStab:  Solving for Ux, Initial residual = 0.0133057, Final residual = 5.72158e-09, No Iterations 2
BiCGStab:  Solving for Uz, Initial residual = 0.0167741, Final residual = 1.54452e-09, No Iterations 2
BiCGStab:  Solving for p, Initial residual = 0.0470007, Final residual = 8.26332e-09, No Iterations 27
time step continuity errors : sum local = 0.00375378, global = 2.84609e-05, cumulative = -0.0465397
BiCGStab:  Solving for p, Initial residual = 0.033016, Final residual = 6.80914e-09, No Iterations 27
time step continuity errors : sum local = 0.00371342, global = -0.000232481, cumulative = -0.0467722
BiCGStab:  Solving for h, Initial residual = 0.0239298, Final residual = 2.43189e-09, No Iterations 2
ExecutionTime = 4.27 s  ClockTime = 4 s

Flux divergence min = 0 max = 40.7987 average: 0.538656
Mach number min = 1.26589 max = 2.04628
Field U magnitude min = 0 max = 628.403
Field p min = 63406 max = 158119
Field rho min = 0.785693 max = 1.6409
Field T min = 222.275 max = 465.517
Time = 69

BiCGStab:  Solving for Ux, Initial residual = 0.0130268, Final residual = 4.38318e-09, No Iterations 2
BiCGStab:  Solving for Uz, Initial residual = 0.0164663, Final residual = 1.41953e-09, No Iterations 2
BiCGStab:  Solving for p, Initial residual = 0.0464116, Final residual = 8.20458e-09, No Iterations 27
time step continuity errors : sum local = 0.0036984, global = 3.2428e-05, cumulative = -0.0467397
BiCGStab:  Solving for p, Initial residual = 0.0325922, Final residual = 6.86922e-09, No Iterations 27
time step continuity errors : sum local = 0.0036534, global = -0.000223421, cumulative = -0.0469632
BiCGStab:  Solving for h, Initial residual = 0.0238289, Final residual = 2.3902e-09, No Iterations 2
ExecutionTime = 4.33 s  ClockTime = 4 s

Flux divergence min = 0 max = 38.3756 average: 0.528357
Mach number min = 1.28265 max = 2.03563
Field U magnitude min = 0 max = 629.432
Field p min = 63439.8 max = 158356
Field rho min = 0.787734 max = 1.64479
Field T min = 224.463 max = 462.616
Time = 70

BiCGStab:  Solving for Ux, Initial residual = 0.0127325, Final residual = 2.33428e-09, No Iterations 2
BiCGStab:  Solving for Uz, Initial residual = 0.0160885, Final residual = 1.48132e-09, No Iterations 2
BiCGStab:  Solving for p, Initial residual = 0.0455559, Final residual = 8.72788e-09, No Iterations 27
time step continuity errors : sum local = 0.00364685, global = 3.65055e-05, cumulative = -0.0469267
BiCGStab:  Solving for p, Initial residual = 0.0319962, Final residual = 7.30279e-09, No Iterations 27
time step continuity errors : sum local = 0.00359615, global = -0.00021528, cumulative = -0.0471419
BiCGStab:  Solving for h, Initial residual = 0.0236726, Final residual = 2.32041e-09, No Iterations 2
ExecutionTime = 4.39 s  ClockTime = 4 s

Flux divergence min = 0 max = 36.3073 average: 0.518327
Mach number min = 1.29917 max = 2.02359
Field U magnitude min = 0 max = 630.358
Field p min = 63480 max = 158650
Field rho min = 0.789954 max = 1.67208
Field T min = 227.097 max = 460.184
Time = 71

BiCGStab:  Solving for Ux, Initial residual = 0.0124481, Final residual = 1.28572e-09, No Iterations 2
BiCGStab:  Solving for Uz, Initial residual = 0.0158833, Final residual = 1.67195e-09, No Iterations 2
BiCGStab:  Solving for p, Initial residual = 0.0449857, Final residual = 3.83806e-09, No Iterations 28
time step continuity errors : sum local = 0.00360274, global = 3.859e-05, cumulative = -0.0471033
BiCGStab:  Solving for p, Initial residual = 0.0315937, Final residual = 9.82978e-09, No Iterations 27
time step continuity errors : sum local = 0.00354615, global = -0.00020972, cumulative = -0.0473131
BiCGStab:  Solving for h, Initial residual = 0.0234818, Final residual = 2.23556e-09, No Iterations 2
ExecutionTime = 4.45 s  ClockTime = 4 s

Flux divergence min = 0 max = 34.193 average: 0.509589
Mach number min = 1.31597 max = 2.01031
Field U magnitude min = 0 max = 631.175
Field p min = 63527.5 max = 158986
Field rho min = 0.794081 max = 1.70538
Field T min = 230.162 max = 457.604
Time = 72

BiCGStab:  Solving for Ux, Initial residual = 0.0121561, Final residual = 1.10558e-09, No Iterations 2
BiCGStab:  Solving for Uz, Initial residual = 0.0157919, Final residual = 1.55982e-09, No Iterations 2
BiCGStab:  Solving for p, Initial residual = 0.0444891, Final residual = 3.49152e-09, No Iterations 28
time step continuity errors : sum local = 0.00355707, global = 4.0996e-05, cumulative = -0.0472721
BiCGStab:  Solving for p, Initial residual = 0.0312625, Final residual = 2.13496e-09, No Iterations 28
time step continuity errors : sum local = 0.00349566, global = -0.000204395, cumulative = -0.0474765
BiCGStab:  Solving for h, Initial residual = 0.0232671, Final residual = 2.15409e-09, No Iterations 2
ExecutionTime = 4.52 s  ClockTime = 4 s

Flux divergence min = 0 max = 32.6142 average: 0.501661
Mach number min = 1.3313 max = 1.99594
Field U magnitude min = 0 max = 631.9
Field p min = 63573.7 max = 159352
Field rho min = 0.80007 max = 1.73621
Field T min = 233.63 max = 455.123
Time = 73

BiCGStab:  Solving for Ux, Initial residual = 0.0118807, Final residual = 1.07503e-09, No Iterations 2
BiCGStab:  Solving for Uz, Initial residual = 0.0156759, Final residual = 1.60879e-09, No Iterations 2
BiCGStab:  Solving for p, Initial residual = 0.0442854, Final residual = 4.27505e-09, No Iterations 27
time step continuity errors : sum local = 0.00351899, global = 3.77219e-05, cumulative = -0.0474387
BiCGStab:  Solving for p, Initial residual = 0.0311383, Final residual = 5.44397e-09, No Iterations 27
time step continuity errors : sum local = 0.00345318, global = -0.000204131, cumulative = -0.0476429
BiCGStab:  Solving for h, Initial residual = 0.0230465, Final residual = 2.0965e-09, No Iterations 2
ExecutionTime = 4.58 s  ClockTime = 4 s

Flux divergence min = 0 max = 33.7331 average: 0.496691
Mach number min = 1.33308 max = 1.98066
Field U magnitude min = 0 max = 632.539
Field p min = 63617.5 max = 160040
Field rho min = 0.804611 max = 1.76673
Field T min = 234.007 max = 453.458
Time = 74

BiCGStab:  Solving for Ux, Initial residual = 0.0115884, Final residual = 1.07374e-09, No Iterations 2
BiCGStab:  Solving for Uz, Initial residual = 0.0154263, Final residual = 1.65275e-09, No Iterations 2
BiCGStab:  Solving for p, Initial residual = 0.0440141, Final residual = 9.50563e-09, No Iterations 27
time step continuity errors : sum local = 0.00346998, global = 2.9376e-05, cumulative = -0.0476135
BiCGStab:  Solving for p, Initial residual = 0.0309371, Final residual = 8.07876e-09, No Iterations 27
time step continuity errors : sum local = 0.00340178, global = -0.000207509, cumulative = -0.047821
BiCGStab:  Solving for h, Initial residual = 0.0228129, Final residual = 2.09204e-09, No Iterations 2
ExecutionTime = 4.64 s  ClockTime = 4 s

Flux divergence min = 0 max = 40.6361 average: 0.492454
Mach number min = 1.33209 max = 1.96489
Field U magnitude min = 0 max = 633.125
Field p min = 63654.2 max = 160961
Field rho min = 0.791523 max = 1.79988
Field T min = 233.671 max = 453.931
Time = 75

BiCGStab:  Solving for Ux, Initial residual = 0.0113528, Final residual = 1.08013e-09, No Iterations 2
BiCGStab:  Solving for Uz, Initial residual = 0.0152948, Final residual = 1.74399e-09, No Iterations 2
BiCGStab:  Solving for p, Initial residual = 0.0436599, Final residual = 7.41917e-09, No Iterations 28
time step continuity errors : sum local = 0.00342447, global = 2.27504e-05, cumulative = -0.0477983
BiCGStab:  Solving for p, Initial residual = 0.0306977, Final residual = 5.15592e-09, No Iterations 28
time step continuity errors : sum local = 0.00335266, global = -0.00020897, cumulative = -0.0480072
BiCGStab:  Solving for h, Initial residual = 0.0225756, Final residual = 2.15947e-09, No Iterations 2
ExecutionTime = 4.71 s  ClockTime = 5 s

Flux divergence min = 0 max = 49.55 average: 0.488839
Mach number min = 1.33123 max = 1.95117
Field U magnitude min = 0 max = 633.696
Field p min = 63659.6 max = 162073
Field rho min = 0.777918 max = 1.8348
Field T min = 233.397 max = 455.065
Time = 76

BiCGStab:  Solving for Ux, Initial residual = 0.0111483, Final residual = 1.0798e-09, No Iterations 2
BiCGStab:  Solving for Uz, Initial residual = 0.0156637, Final residual = 1.69374e-09, No Iterations 2
BiCGStab:  Solving for p, Initial residual = 0.0440502, Final residual = 8.37164e-10, No Iterations 29
time step continuity errors : sum local = 0.00340693, global = -4.27838e-05, cumulative = -0.04805
BiCGStab:  Solving for p, Initial residual = 0.0309564, Final residual = 7.63007e-09, No Iterations 28
time step continuity errors : sum local = 0.00332913, global = -0.000264976, cumulative = -0.048315
BiCGStab:  Solving for h, Initial residual = 0.0223244, Final residual = 2.31103e-09, No Iterations 2
ExecutionTime = 4.77 s  ClockTime = 5 s

Flux divergence min = 0 max = 97.2023 average: 0.490686
Mach number min = 1.32075 max = 1.95085
Field U magnitude min = 0 max = 634.252
Field p min = 63625.9 max = 163298
Field rho min = 0.766038 max = 1.87121
Field T min = 233.104 max = 455.046
Time = 77

BiCGStab:  Solving for Ux, Initial residual = 0.0109424, Final residual = 1.08354e-09, No Iterations 2
BiCGStab:  Solving for Uz, Initial residual = 0.0155628, Final residual = 1.70859e-09, No Iterations 2
BiCGStab:  Solving for p, Initial residual = 0.0436408, Final residual = 7.58229e-10, No Iterations 29
time step continuity errors : sum local = 0.00334489, global = -1.70021e-05, cumulative = -0.048332
BiCGStab:  Solving for p, Initial residual = 0.0306801, Final residual = 5.99105e-10, No Iterations 29
time step continuity errors : sum local = 0.00326635, global = -0.000232728, cumulative = -0.0485647
BiCGStab:  Solving for h, Initial residual = 0.0220345, Final residual = 2.59262e-09, No Iterations 2
ExecutionTime = 4.83 s  ClockTime = 5 s

Flux divergence min = 0 max = 98.0229 average: 0.487639
Mach number min = 1.31808 max = 1.95056
Field U magnitude min = 0 max = 634.779
Field p min = 63537.6 max = 164471
Field rho min = 0.757105 max = 1.91342
Field T min = 232.801 max = 453.102
Time = 78

BiCGStab:  Solving for Ux, Initial residual = 0.010705, Final residual = 1.08092e-09, No Iterations 2
BiCGStab:  Solving for Uz, Initial residual = 0.0152343, Final residual = 1.74156e-09, No Iterations 2
BiCGStab:  Solving for p, Initial residual = 0.0429815, Final residual = 9.62043e-09, No Iterations 28
time step continuity errors : sum local = 0.00327959, global = 4.21014e-06, cumulative = -0.0485605
BiCGStab:  Solving for p, Initial residual = 0.0302171, Final residual = 8.58651e-10, No Iterations 29
time step continuity errors : sum local = 0.00320243, global = -0.000206093, cumulative = -0.0487666
[...]
time step continuity errors : sum local = 0.000346736, global = -1.65556e-05, cumulative = -0.199414
BiCGStab:  Solving for h, Initial residual = 0.00227428, Final residual = 4.08931e-12, No Iterations 3
ExecutionTime = 124.43 s  ClockTime = 124 s

Flux divergence min = 0 max = 33.6867 average: 0.0614157
Mach number min = 1.28193 max = 1.88455
Field U magnitude min = 0 max = 621.984
Field p min = 66735.8 max = 166707
Field rho min = 0.857505 max = 1.66967
Field T min = 270.251 max = 347.753
Time = 1982

BiCGStab:  Solving for Ux, Initial residual = 0.00112518, Final residual = 3.68033e-10, No Iterations 2
BiCGStab:  Solving for Uz, Initial residual = 0.00824655, Final residual = 1.39022e-09, No Iterations 2
BiCGStab:  Solving for p, Initial residual = 0.0200342, Final residual = 1.28955e-09, No Iterations 24
time step continuity errors : sum local = 0.000342263, global = -1.20816e-05, cumulative = -0.199426
BiCGStab:  Solving for p, Initial residual = 0.0141997, Final residual = 1.54202e-09, No Iterations 24
time step continuity errors : sum local = 0.0003407, global = -1.74333e-05, cumulative = -0.199444
BiCGStab:  Solving for h, Initial residual = 0.00226695, Final residual = 9.28137e-09, No Iterations 2
ExecutionTime = 124.5 s  ClockTime = 124 s

Flux divergence min = 0 max = 26.4295 average: 0.0580443
Mach number min = 1.27968 max = 1.88459
Field U magnitude min = 0 max = 621.984
Field p min = 66741.4 max = 166727
Field rho min = 0.856407 max = 1.66976
Field T min = 270.436 max = 347.847
Time = 1983

BiCGStab:  Solving for Ux, Initial residual = 0.00113228, Final residual = 3.69163e-10, No Iterations 2
BiCGStab:  Solving for Uz, Initial residual = 0.00845871, Final residual = 1.29949e-09, No Iterations 2
BiCGStab:  Solving for p, Initial residual = 0.0202038, Final residual = 1.85932e-09, No Iterations 24
time step continuity errors : sum local = 0.000347704, global = -3.04317e-05, cumulative = -0.199474
BiCGStab:  Solving for p, Initial residual = 0.0143085, Final residual = 2.80943e-09, No Iterations 24
time step continuity errors : sum local = 0.000345221, global = -3.25857e-05, cumulative = -0.199507
BiCGStab:  Solving for h, Initial residual = 0.00226089, Final residual = 4.99351e-09, No Iterations 2
ExecutionTime = 124.57 s  ClockTime = 124 s

Flux divergence min = 0 max = 46.5115 average: 0.0606315
Mach number min = 1.27386 max = 1.88466
Field U magnitude min = 0 max = 621.983
Field p min = 66744.8 max = 166763
Field rho min = 0.855103 max = 1.6701
Field T min = 270.416 max = 347.826
Time = 1984

BiCGStab:  Solving for Ux, Initial residual = 0.00112731, Final residual = 3.6923e-10, No Iterations 2
BiCGStab:  Solving for Uz, Initial residual = 0.00834417, Final residual = 1.28494e-09, No Iterations 2
BiCGStab:  Solving for p, Initial residual = 0.0199518, Final residual = 3.82116e-09, No Iterations 24
time step continuity errors : sum local = 0.000333466, global = -8.32644e-06, cumulative = -0.199515
BiCGStab:  Solving for p, Initial residual = 0.0141384, Final residual = 3.62815e-09, No Iterations 24
time step continuity errors : sum local = 0.000331662, global = -1.0916e-05, cumulative = -0.199526
BiCGStab:  Solving for h, Initial residual = 0.00225109, Final residual = 3.20021e-09, No Iterations 2
ExecutionTime = 124.64 s  ClockTime = 124 s

Flux divergence min = 0 max = 50.5022 average: 0.059266
Mach number min = 1.27053 max = 1.88474
Field U magnitude min = 0 max = 621.982
Field p min = 66752.6 max = 166798
Field rho min = 0.853842 max = 1.67054
Field T min = 270.391 max = 347.707
Time = 1985

BiCGStab:  Solving for Ux, Initial residual = 0.00111551, Final residual = 3.74494e-10, No Iterations 2
BiCGStab:  Solving for Uz, Initial residual = 0.00817835, Final residual = 1.17549e-09, No Iterations 2
BiCGStab:  Solving for p, Initial residual = 0.0198094, Final residual = 6.62918e-09, No Iterations 22
time step continuity errors : sum local = 0.000325367, global = 7.75604e-06, cumulative = -0.199518
BiCGStab:  Solving for p, Initial residual = 0.014038, Final residual = 6.20119e-09, No Iterations 22
time step continuity errors : sum local = 0.000323687, global = 3.96045e-06, cumulative = -0.199514
BiCGStab:  Solving for h, Initial residual = 0.00224935, Final residual = 2.68476e-09, No Iterations 2
ExecutionTime = 124.7 s  ClockTime = 125 s

Flux divergence min = 0 max = 32.8164 average: 0.0575049
Mach number min = 1.26975 max = 1.88483
Field U magnitude min = 0 max = 621.981
Field p min = 66765.2 max = 166832
Field rho min = 0.852786 max = 1.67101
Field T min = 270.365 max = 348.502
Time = 1986

BiCGStab:  Solving for Ux, Initial residual = 0.00110479, Final residual = 3.75706e-10, No Iterations 2
BiCGStab:  Solving for Uz, Initial residual = 0.00821116, Final residual = 1.16183e-09, No Iterations 2
BiCGStab:  Solving for p, Initial residual = 0.0198447, Final residual = 4.45058e-09, No Iterations 22
time step continuity errors : sum local = 0.000324975, global = 1.71403e-05, cumulative = -0.199497
BiCGStab:  Solving for p, Initial residual = 0.014068, Final residual = 3.4821e-09, No Iterations 22
time step continuity errors : sum local = 0.000322713, global = 1.17298e-05, cumulative = -0.199485
BiCGStab:  Solving for h, Initial residual = 0.00222976, Final residual = 3.01435e-09, No Iterations 2
ExecutionTime = 124.77 s  ClockTime = 125 s

Flux divergence min = 0 max = 26.8898 average: 0.0557628
Mach number min = 1.27081 max = 1.88493
Field U magnitude min = 0 max = 621.982
Field p min = 66779.7 max = 166863
Field rho min = 0.852021 max = 1.67142
Field T min = 270.339 max = 349.298
Time = 1987

BiCGStab:  Solving for Ux, Initial residual = 0.00109222, Final residual = 3.67647e-10, No Iterations 2
BiCGStab:  Solving for Uz, Initial residual = 0.00825108, Final residual = 1.16971e-09, No Iterations 2
BiCGStab:  Solving for p, Initial residual = 0.0198124, Final residual = 7.74465e-09, No Iterations 23
time step continuity errors : sum local = 0.000326513, global = 1.05107e-05, cumulative = -0.199475
BiCGStab:  Solving for p, Initial residual = 0.0140388, Final residual = 8.72996e-09, No Iterations 22
time step continuity errors : sum local = 0.000324152, global = 5.55885e-06, cumulative = -0.199469
BiCGStab:  Solving for h, Initial residual = 0.00221909, Final residual = 4.94553e-09, No Iterations 2
ExecutionTime = 124.83 s  ClockTime = 125 s

Flux divergence min = 0 max = 23.9186 average: 0.0562377
Mach number min = 1.27126 max = 1.88502
Field U magnitude min = 0 max = 621.987
Field p min = 66792.2 max = 166892
Field rho min = 0.85159 max = 1.67173
Field T min = 270.318 max = 349.678
Time = 1988

BiCGStab:  Solving for Ux, Initial residual = 0.00107794, Final residual = 3.61149e-10, No Iterations 2
BiCGStab:  Solving for Uz, Initial residual = 0.00820964, Final residual = 1.1804e-09, No Iterations 2
BiCGStab:  Solving for p, Initial residual = 0.0197397, Final residual = 2.99382e-10, No Iterations 24
time step continuity errors : sum local = 0.00032633, global = 1.0684e-05, cumulative = -0.199459
BiCGStab:  Solving for p, Initial residual = 0.0139996, Final residual = 5.54348e-09, No Iterations 22
time step continuity errors : sum local = 0.00032415, global = 5.21373e-06, cumulative = -0.199453
BiCGStab:  Solving for h, Initial residual = 0.00219429, Final residual = 4.55387e-12, No Iterations 3
ExecutionTime = 124.9 s  ClockTime = 125 s

Flux divergence min = 0 max = 23.9986 average: 0.0570329
Mach number min = 1.27279 max = 1.8851
Field U magnitude min = 0 max = 621.996
Field p min = 66797.8 max = 166919
Field rho min = 0.851479 max = 1.6719
Field T min = 270.302 max = 349.586
Time = 1989

BiCGStab:  Solving for Ux, Initial residual = 0.00105689, Final residual = 3.43372e-10, No Iterations 2
BiCGStab:  Solving for Uz, Initial residual = 0.00818293, Final residual = 1.20499e-09, No Iterations 2
BiCGStab:  Solving for p, Initial residual = 0.0197247, Final residual = 1.61501e-09, No Iterations 23
time step continuity errors : sum local = 0.000328701, global = 7.01723e-06, cumulative = -0.199446
BiCGStab:  Solving for p, Initial residual = 0.0139899, Final residual = 9.69246e-09, No Iterations 21
time step continuity errors : sum local = 0.000326775, global = 1.50006e-06, cumulative = -0.199445
BiCGStab:  Solving for h, Initial residual = 0.0021553, Final residual = 4.49819e-12, No Iterations 3
ExecutionTime = 124.96 s  ClockTime = 125 s

Flux divergence min = 0 max = 27.4051 average: 0.0584151
Mach number min = 1.2749 max = 1.88517
Field U magnitude min = 0 max = 622.009
Field p min = 66797.2 max = 166946
Field rho min = 0.85171 max = 1.67198
Field T min = 270.293 max = 349.14
Time = 1990

BiCGStab:  Solving for Ux, Initial residual = 0.00105499, Final residual = 3.43101e-10, No Iterations 2
BiCGStab:  Solving for Uz, Initial residual = 0.00847137, Final residual = 1.29733e-09, No Iterations 2
BiCGStab:  Solving for p, Initial residual = 0.0203428, Final residual = 9.76699e-09, No Iterations 20
time step continuity errors : sum local = 0.000334122, global = 2.72156e-06, cumulative = -0.199442
BiCGStab:  Solving for p, Initial residual = 0.0144372, Final residual = 5.72652e-09, No Iterations 20
time step continuity errors : sum local = 0.000332468, global = -2.20061e-06, cumulative = -0.199444
BiCGStab:  Solving for h, Initial residual = 0.0021511, Final residual = 3.43823e-09, No Iterations 2
ExecutionTime = 125.03 s  ClockTime = 125 s

Flux divergence min = 0 max = 38.5536 average: 0.0617472
Mach number min = 1.27711 max = 1.88522
Field U magnitude min = 0 max = 622.025
Field p min = 66792.1 max = 166969
Field rho min = 0.852279 max = 1.67198
Field T min = 270.291 max = 348.523
Time = 1991

BiCGStab:  Solving for Ux, Initial residual = 0.00105206, Final residual = 3.54298e-10, No Iterations 2
BiCGStab:  Solving for Uz, Initial residual = 0.00832203, Final residual = 1.372e-09, No Iterations 2
BiCGStab:  Solving for p, Initial residual = 0.0203112, Final residual = 3.73984e-10, No Iterations 24
time step continuity errors : sum local = 0.000331929, global = 4.37328e-06, cumulative = -0.19944
BiCGStab:  Solving for p, Initial residual = 0.0144119, Final residual = 2.12065e-10, No Iterations 24
time step continuity errors : sum local = 0.000329886, global = -5.16694e-07, cumulative = -0.19944
BiCGStab:  Solving for h, Initial residual = 0.00214948, Final residual = 1.51363e-09, No Iterations 2
ExecutionTime = 125.09 s  ClockTime = 125 s

Flux divergence min = 0 max = 32.2742 average: 0.0602818
Mach number min = 1.27904 max = 1.88526
Field U magnitude min = 0 max = 622.04
Field p min = 66784 max = 166986
Field rho min = 0.853138 max = 1.67192
Field T min = 270.294 max = 347.898
Time = 1992

BiCGStab:  Solving for Ux, Initial residual = 0.00106238, Final residual = 4.03317e-10, No Iterations 2
BiCGStab:  Solving for Uz, Initial residual = 0.00854724, Final residual = 1.57749e-09, No Iterations 2
BiCGStab:  Solving for p, Initial residual = 0.0205142, Final residual = 7.87905e-09, No Iterations 23
time step continuity errors : sum local = 0.000336062, global = 8.03227e-06, cumulative = -0.199432
BiCGStab:  Solving for p, Initial residual = 0.0145589, Final residual = 4.80276e-09, No Iterations 23
time step continuity errors : sum local = 0.000334188, global = 2.81378e-06, cumulative = -0.19943
BiCGStab:  Solving for h, Initial residual = 0.00215432, Final residual = 1.1581e-09, No Iterations 2
ExecutionTime = 125.16 s  ClockTime = 125 s

Flux divergence min = 0 max = 37.9754 average: 0.0625709
Mach number min = 1.28041 max = 1.88527
Field U magnitude min = 0 max = 622.054
Field p min = 66773.5 max = 166995
Field rho min = 0.854199 max = 1.67181
Field T min = 270.303 max = 347.653
Time = 1993

BiCGStab:  Solving for Ux, Initial residual = 0.00107835, Final residual = 4.04286e-10, No Iterations 2
BiCGStab:  Solving for Uz, Initial residual = 0.00840376, Final residual = 1.48771e-09, No Iterations 2
BiCGStab:  Solving for p, Initial residual = 0.0205887, Final residual = 1.18182e-09, No Iterations 24
time step continuity errors : sum local = 0.000333567, global = 1.3877e-05, cumulative = -0.199416
BiCGStab:  Solving for p, Initial residual = 0.014604, Final residual = 5.70593e-10, No Iterations 24
time step continuity errors : sum local = 0.0003319, global = 7.52551e-06, cumulative = -0.199408
BiCGStab:  Solving for h, Initial residual = 0.00214101, Final residual = 1.14581e-09, No Iterations 2
ExecutionTime = 125.22 s  ClockTime = 125 s

Flux divergence min = 0 max = 46.8322 average: 0.0612978
Mach number min = 1.27916 max = 1.88527
Field U magnitude min = 0 max = 622.065
Field p min = 66761.1 max = 166994
Field rho min = 0.855343 max = 1.67164
Field T min = 270.314 max = 347.647
Time = 1994

BiCGStab:  Solving for Ux, Initial residual = 0.00109937, Final residual = 4.03243e-10, No Iterations 2
BiCGStab:  Solving for Uz, Initial residual = 0.00866572, Final residual = 4.90711e-09, No Iterations 2
BiCGStab:  Solving for p, Initial residual = 0.0212682, Final residual = 8.66678e-09, No Iterations 22
time step continuity errors : sum local = 0.00037517, global = -6.35533e-05, cumulative = -0.199472
BiCGStab:  Solving for p, Initial residual = 0.0150619, Final residual = 7.95494e-09, No Iterations 21
time step continuity errors : sum local = 0.000370477, global = -6.39338e-05, cumulative = -0.199536
BiCGStab:  Solving for h, Initial residual = 0.00216199, Final residual = 1.29958e-09, No Iterations 2
ExecutionTime = 125.27 s  ClockTime = 125 s

Flux divergence min = 0 max = 104.008 average: 0.0749065
Mach number min = 1.27434 max = 1.88524
Field U magnitude min = 0 max = 622.073
Field p min = 66790.9 max = 166981
Field rho min = 0.857004 max = 1.67141
Field T min = 270.276 max = 347.633
Time = 1995

BiCGStab:  Solving for Ux, Initial residual = 0.0011143, Final residual = 4.12531e-10, No Iterations 2
BiCGStab:  Solving for Uz, Initial residual = 0.00846745, Final residual = 1.44593e-09, No Iterations 2
BiCGStab:  Solving for p, Initial residual = 0.0212572, Final residual = 4.83574e-09, No Iterations 22
time step continuity errors : sum local = 0.000358395, global = -4.41877e-05, cumulative = -0.19958
BiCGStab:  Solving for p, Initial residual = 0.0150837, Final residual = 5.89746e-09, No Iterations 22
time step continuity errors : sum local = 0.000354753, global = -4.20567e-05, cumulative = -0.199622
BiCGStab:  Solving for h, Initial residual = 0.00215037, Final residual = 1.49055e-09, No Iterations 2
ExecutionTime = 125.33 s  ClockTime = 125 s

Flux divergence min = 0 max = 103.21 average: 0.0772858
Mach number min = 1.27201 max = 1.88521
Field U magnitude min = 0 max = 622.077
Field p min = 66770.8 max = 166955
Field rho min = 0.857869 max = 1.67108
Field T min = 269.965 max = 347.613
Time = 1996

BiCGStab:  Solving for Ux, Initial residual = 0.0011129, Final residual = 3.78938e-10, No Iterations 2
BiCGStab:  Solving for Uz, Initial residual = 0.00811269, Final residual = 1.41815e-09, No Iterations 2
BiCGStab:  Solving for p, Initial residual = 0.0205458, Final residual = 2.30082e-09, No Iterations 25
time step continuity errors : sum local = 0.0003412, global = 1.30897e-05, cumulative = -0.199609
BiCGStab:  Solving for p, Initial residual = 0.0145679, Final residual = 8.92655e-09, No Iterations 23
time step continuity errors : sum local = 0.000339752, global = 1.38883e-05, cumulative = -0.199595
BiCGStab:  Solving for h, Initial residual = 0.00213564, Final residual = 1.34873e-09, No Iterations 2
ExecutionTime = 125.4 s  ClockTime = 125 s

Flux divergence min = 0 max = 64.1292 average: 0.0741256
Mach number min = 1.27212 max = 1.88518
Field U magnitude min = 0 max = 622.08
Field p min = 66729.7 max = 166921
Field rho min = 0.85818 max = 1.67073
Field T min = 269.757 max = 347.586
Time = 1997

BiCGStab:  Solving for Ux, Initial residual = 0.00111344, Final residual = 3.75379e-10, No Iterations 2
BiCGStab:  Solving for Uz, Initial residual = 0.00802343, Final residual = 1.5084e-09, No Iterations 2
BiCGStab:  Solving for p, Initial residual = 0.0198887, Final residual = 6.13118e-09, No Iterations 22
time step continuity errors : sum local = 0.000338982, global = 4.03955e-05, cumulative = -0.199555
BiCGStab:  Solving for p, Initial residual = 0.0141095, Final residual = 4.21459e-09, No Iterations 22
time step continuity errors : sum local = 0.000336261, global = 3.83191e-05, cumulative = -0.199516
BiCGStab:  Solving for h, Initial residual = 0.00213777, Final residual = 1.20658e-09, No Iterations 2
ExecutionTime = 125.47 s  ClockTime = 125 s

Flux divergence min = 0 max = 62.8067 average: 0.068024
Mach number min = 1.27357 max = 1.88515
Field U magnitude min = 0 max = 622.082
Field p min = 66707.3 max = 166886
Field rho min = 0.858357 max = 1.6704
Field T min = 269.678 max = 347.552
Time = 1998

BiCGStab:  Solving for Ux, Initial residual = 0.00110888, Final residual = 4.00111e-10, No Iterations 2
BiCGStab:  Solving for Uz, Initial residual = 0.00809776, Final residual = 1.35679e-09, No Iterations 2
BiCGStab:  Solving for p, Initial residual = 0.0197338, Final residual = 1.23454e-09, No Iterations 27
time step continuity errors : sum local = 0.00033333, global = 3.7905e-05, cumulative = -0.199478
BiCGStab:  Solving for p, Initial residual = 0.0139897, Final residual = 8.75807e-09, No Iterations 25
time step continuity errors : sum local = 0.000330403, global = 3.30029e-05, cumulative = -0.199445
BiCGStab:  Solving for h, Initial residual = 0.00214141, Final residual = 1.15838e-09, No Iterations 2
ExecutionTime = 125.53 s  ClockTime = 125 s

Flux divergence min = 0 max = 52.6856 average: 0.0623402
Mach number min = 1.27436 max = 1.88513
Field U magnitude min = 0 max = 622.086
Field p min = 66712.2 max = 166851
Field rho min = 0.858444 max = 1.67013
Field T min = 269.741 max = 347.698
Time = 1999

BiCGStab:  Solving for Ux, Initial residual = 0.00110048, Final residual = 4.09008e-10, No Iterations 2
BiCGStab:  Solving for Uz, Initial residual = 0.00813064, Final residual = 1.29058e-09, No Iterations 2
BiCGStab:  Solving for p, Initial residual = 0.0197585, Final residual = 9.67277e-09, No Iterations 26
time step continuity errors : sum local = 0.000333822, global = 2.00358e-05, cumulative = -0.199425
BiCGStab:  Solving for p, Initial residual = 0.0140078, Final residual = 7.72959e-09, No Iterations 26
time step continuity errors : sum local = 0.000331204, global = 1.37208e-05, cumulative = -0.199412
BiCGStab:  Solving for h, Initial residual = 0.00213091, Final residual = 1.14918e-09, No Iterations 2
ExecutionTime = 125.61 s  ClockTime = 125 s

Flux divergence min = 0 max = 37.7723 average: 0.0615041
Mach number min = 1.27562 max = 1.88512
Field U magnitude min = 0 max = 622.092
Field p min = 66729.8 max = 166818
Field rho min = 0.858236 max = 1.66994
Field T min = 269.944 max = 347.846
Time = 2000

BiCGStab:  Solving for Ux, Initial residual = 0.00110772, Final residual = 4.00038e-10, No Iterations 2
BiCGStab:  Solving for Uz, Initial residual = 0.00841825, Final residual = 1.24423e-09, No Iterations 2
BiCGStab:  Solving for p, Initial residual = 0.0201189, Final residual = 6.39875e-09, No Iterations 23
time step continuity errors : sum local = 0.000340377, global = -3.55682e-07, cumulative = -0.199412
BiCGStab:  Solving for p, Initial residual = 0.0142622, Final residual = 4.20648e-09, No Iterations 22
time step continuity errors : sum local = 0.00033862, global = -6.18079e-06, cumulative = -0.199418
BiCGStab:  Solving for h, Initial residual = 0.0021287, Final residual = 1.16026e-09, No Iterations 2
ExecutionTime = 125.76 s  ClockTime = 126 s

Flux divergence min = 0 max = 29.0465 average: 0.0588655
Writing divFlux field
Mach number min = 1.27701 max = 1.88513
Writing Mach number field
Field U magnitude min = 0 max = 622.103
Field p min = 66743.6 max = 166786
Field rho min = 0.85756 max = 1.66981
Field T min = 270.263 max = 347.907
End

