/*---------------------------------------------------------------------------*\
| =========                 |                                                 |
| \\      /  F ield         | foam-extend: Open Source CFD                    |
|  \\    /   O peration     | Version:     4.0                                |
|   \\  /    A nd           | Web:         http://www.foam-extend.org         |
|    \\/     M anipulation  | For copyright notice see file Copyright         |
\*---------------------------------------------------------------------------*/
Build    : 4.0-268bb07d15d8
Exec     : steadyCompressibleSRFFoam
Date     : Apr 19 2019
Time     : 01:42:03
Host     : ubuntu-14
PID      : 24484
CtrlDict : "/home/stas/foam/foam-extend-4.0/tutorials/compressible/steadyCompressibleSRFFoam/bentBlade/system/controlDict"
Case     : /home/stas/foam/foam-extend-4.0/tutorials/compressible/steadyCompressibleSRFFoam/bentBlade
nProcs   : 1
SigFpe   : Enabling floating point exception trapping (FOAM_SIGFPE).

// * * * * * * * * * * * * * * * * * * * * * * * * * * * * * * * * * * * * * //
Create time

Create mesh for time = 0


PIMPLE: Operating solver in PISO mode

Reading thermophysical properties

Selecting thermodynamics package hPsiThermo<pureMixture<constTransport<specieThermo<hConstThermo<perfectGas>>>>>

Reading field Urel

Reading/calculating face flux field phi

Creating turbulence model

Selecting RAS turbulence model kEpsilon
kEpsilonCoeffs
{
    Cmu             0.09;
    C1              1.44;
    C2              1.92;
    C3              -0.33;
    sigmak          1;
    sigmaEps        1.3;
    Prt             1;
}

Creating SRF model

Selecting SRFModel rpm

Starting time loop

Creating divFlux for field phi
Creating MachNumber for field Uabs
Creating minMaxField for field Urel
Creating minMaxField for field p
Creating minMaxField for field rho
Creating minMaxField for field T
Time = 1

BiCGStab:  Solving for Urelx, Initial residual = 1, Final residual = 1.82409e-10, No Iterations 4
BiCGStab:  Solving for Urely, Initial residual = 1, Final residual = 3.38318e-10, No Iterations 4
BiCGStab:  Solving for Urelz, Initial residual = 1, Final residual = 2.46218e-09, No Iterations 4
BiCGStab:  Solving for p, Initial residual = 1, Final residual = 0.00498609, No Iterations 35
time step continuity errors : sum local = 0.202367, global = -0.080188, cumulative = -0.080188
BiCGStab:  Solving for p, Initial residual = 0.547368, Final residual = 0.00396068, No Iterations 33
time step continuity errors : sum local = 0.199202, global = -0.129949, cumulative = -0.210137
BiCGStab:  Solving for i, Initial residual = 0.00753723, Final residual = 5.37928e-11, No Iterations 2
BiCGStab:  Solving for epsilon, Initial residual = 0.0398861, Final residual = 3.60024e-09, No Iterations 3
BiCGStab:  Solving for k, Initial residual = 1, Final residual = 3.48151e-09, No Iterations 4
ExecutionTime = 0.43 s  ClockTime = 1 s

Flux divergence min = 9.88565e-08 max = 78045.4 average: 181.39
Mach number min = 0.279245 max = 0.68327
Field Urel magnitude min = 0 max = 145.36
Field p min = 53751.6 max = 185025
Field rho min = 0.8975 max = 1.65469
Field T min = 285.049 max = 307.91
Time = 2

BiCGStab:  Solving for Urelx, Initial residual = 0.421207, Final residual = 5.41942e-10, No Iterations 4
BiCGStab:  Solving for Urely, Initial residual = 0.435693, Final residual = 7.68481e-11, No Iterations 4
BiCGStab:  Solving for Urelz, Initial residual = 0.441052, Final residual = 2.87196e-09, No Iterations 3
BiCGStab:  Solving for p, Initial residual = 0.409554, Final residual = 0.00321128, No Iterations 33
time step continuity errors : sum local = 0.146937, global = -0.131706, cumulative = -0.341843
BiCGStab:  Solving for p, Initial residual = 0.254563, Final residual = 0.00177545, No Iterations 32
time step continuity errors : sum local = 0.164078, global = -0.158485, cumulative = -0.500328
BiCGStab:  Solving for i, Initial residual = 0.00458584, Final residual = 4.26515e-11, No Iterations 2
BiCGStab:  Solving for epsilon, Initial residual = 0.15874, Final residual = 1.9583e-09, No Iterations 3
BiCGStab:  Solving for k, Initial residual = 0.590853, Final residual = 3.23111e-10, No Iterations 4
ExecutionTime = 0.66 s  ClockTime = 1 s

Flux divergence min = 4.84598e-05 max = 23823.6 average: 93.199
Mach number min = 0.187479 max = 0.816876
Field Urel magnitude min = 0 max = 183.406
Field p min = 59799.1 max = 223571
Field rho min = 0.804805 max = 2.11532
Field T min = 288.591 max = 316.191
Time = 3

BiCGStab:  Solving for Urelx, Initial residual = 0.241569, Final residual = 9.50765e-10, No Iterations 4
BiCGStab:  Solving for Urely, Initial residual = 0.234916, Final residual = 3.57893e-09, No Iterations 3
BiCGStab:  Solving for Urelz, Initial residual = 0.212907, Final residual = 2.05892e-09, No Iterations 3
BiCGStab:  Solving for p, Initial residual = 0.339415, Final residual = 0.00195705, No Iterations 32
time step continuity errors : sum local = 0.14845, global = -0.135522, cumulative = -0.63585
BiCGStab:  Solving for p, Initial residual = 0.220463, Final residual = 0.00172482, No Iterations 32
time step continuity errors : sum local = 0.167126, global = -0.159422, cumulative = -0.795272
BiCGStab:  Solving for i, Initial residual = 0.00394569, Final residual = 3.92491e-11, No Iterations 2
BiCGStab:  Solving for epsilon, Initial residual = 0.244975, Final residual = 1.02995e-09, No Iterations 3
BiCGStab:  Solving for k, Initial residual = 0.332861, Final residual = 6.33636e-09, No Iterations 3
ExecutionTime = 0.88 s  ClockTime = 1 s

Flux divergence min = 0.000305562 max = 24741.7 average: 83.3247
Mach number min = 0.165159 max = 0.839231
Field Urel magnitude min = 0 max = 206.997
Field p min = 64535.6 max = 197507
Field rho min = 0.861264 max = 2.18566
Field T min = 284.13 max = 318.165
Time = 4

BiCGStab:  Solving for Urelx, Initial residual = 0.164305, Final residual = 7.92395e-09, No Iterations 3
BiCGStab:  Solving for Urely, Initial residual = 0.151447, Final residual = 2.04537e-09, No Iterations 3
BiCGStab:  Solving for Urelz, Initial residual = 0.12459, Final residual = 1.29807e-09, No Iterations 3
BiCGStab:  Solving for p, Initial residual = 0.278689, Final residual = 0.00261134, No Iterations 30
time step continuity errors : sum local = 0.125618, global = -0.087676, cumulative = -0.882948
BiCGStab:  Solving for p, Initial residual = 0.187403, Final residual = 0.000298989, No Iterations 35
time step continuity errors : sum local = 0.140599, global = -0.108107, cumulative = -0.991055
BiCGStab:  Solving for i, Initial residual = 0.00312351, Final residual = 2.55562e-11, No Iterations 2
BiCGStab:  Solving for epsilon, Initial residual = 0.200582, Final residual = 6.56776e-10, No Iterations 3
BiCGStab:  Solving for k, Initial residual = 0.190964, Final residual = 2.81113e-09, No Iterations 3
ExecutionTime = 1.1 s  ClockTime = 1 s

Flux divergence min = 2.01924e-05 max = 9870.51 average: 61.9687
Mach number min = 0.0784293 max = 0.824371
Field Urel magnitude min = 0 max = 217.001
Field p min = 64306.4 max = 177402
Field rho min = 0.839053 max = 2.00233
Field T min = 282.123 max = 317.248
Time = 5

BiCGStab:  Solving for Urelx, Initial residual = 0.155918, Final residual = 1.27246e-10, No Iterations 4
BiCGStab:  Solving for Urely, Initial residual = 0.110844, Final residual = 1.43911e-09, No Iterations 3
BiCGStab:  Solving for Urelz, Initial residual = 0.104859, Final residual = 4.07392e-09, No Iterations 3
BiCGStab:  Solving for p, Initial residual = 0.247356, Final residual = 0.0024123, No Iterations 21
time step continuity errors : sum local = 0.0968635, global = -0.0300154, cumulative = -1.02107
BiCGStab:  Solving for p, Initial residual = 0.163999, Final residual = 0.00158786, No Iterations 22
time step continuity errors : sum local = 0.097017, global = -0.0401417, cumulative = -1.06121
BiCGStab:  Solving for i, Initial residual = 0.00236977, Final residual = 2.28846e-11, No Iterations 2
BiCGStab:  Solving for epsilon, Initial residual = 0.14555, Final residual = 3.08587e-10, No Iterations 3
BiCGStab:  Solving for k, Initial residual = 0.125152, Final residual = 1.89163e-09, No Iterations 3
ExecutionTime = 1.29 s  ClockTime = 2 s

Flux divergence min = 0.000329527 max = 8065.83 average: 43.6001
Mach number min = 0.0741468 max = 0.810858
Field Urel magnitude min = 0 max = 205.626
Field p min = 75430.6 max = 175133
Field rho min = 0.874492 max = 1.87165
Field T min = 284.59 max = 316
Time = 6

BiCGStab:  Solving for Urelx, Initial residual = 0.161376, Final residual = 7.9806e-11, No Iterations 4
BiCGStab:  Solving for Urely, Initial residual = 0.10633, Final residual = 1.70392e-09, No Iterations 3
BiCGStab:  Solving for Urelz, Initial residual = 0.110355, Final residual = 6.91417e-09, No Iterations 3
BiCGStab:  Solving for p, Initial residual = 0.230563, Final residual = 0.00164125, No Iterations 30
time step continuity errors : sum local = 0.0744175, global = 0.0197589, cumulative = -1.04145
BiCGStab:  Solving for p, Initial residual = 0.150674, Final residual = 0.00122509, No Iterations 28
time step continuity errors : sum local = 0.0702163, global = 0.0161081, cumulative = -1.02534
BiCGStab:  Solving for i, Initial residual = 0.00181348, Final residual = 1.85392e-11, No Iterations 2
BiCGStab:  Solving for epsilon, Initial residual = 0.101492, Final residual = 1.55182e-10, No Iterations 3
BiCGStab:  Solving for k, Initial residual = 0.0916258, Final residual = 2.05766e-09, No Iterations 3
ExecutionTime = 1.5 s  ClockTime = 2 s

Flux divergence min = 6.64393e-05 max = 6910.59 average: 30.6173
Mach number min = 0.0666815 max = 0.809597
Field Urel magnitude min = 0 max = 186.845
Field p min = 83334.5 max = 173094
Field rho min = 0.926506 max = 1.79092
Field T min = 288.077 max = 314.83
Time = 7

BiCGStab:  Solving for Urelx, Initial residual = 0.156565, Final residual = 7.26421e-09, No Iterations 3
BiCGStab:  Solving for Urely, Initial residual = 0.122036, Final residual = 1.36291e-09, No Iterations 3
BiCGStab:  Solving for Urelz, Initial residual = 0.108598, Final residual = 3.39619e-09, No Iterations 3
BiCGStab:  Solving for p, Initial residual = 0.214214, Final residual = 0.00201251, No Iterations 28
time step continuity errors : sum local = 0.0816202, global = 0.0585193, cumulative = -0.966825
BiCGStab:  Solving for p, Initial residual = 0.140315, Final residual = 0.00121767, No Iterations 26
time step continuity errors : sum local = 0.0769439, global = 0.0539655, cumulative = -0.91286
BiCGStab:  Solving for i, Initial residual = 0.00161902, Final residual = 1.70552e-11, No Iterations 2
BiCGStab:  Solving for epsilon, Initial residual = 0.0745176, Final residual = 1.19382e-10, No Iterations 3
BiCGStab:  Solving for k, Initial residual = 0.0705451, Final residual = 2.22466e-09, No Iterations 3
ExecutionTime = 1.71 s  ClockTime = 2 s

Flux divergence min = 1.16929e-05 max = 5675.69 average: 28.4967
Mach number min = 0.0775103 max = 0.793742
Field Urel magnitude min = 0 max = 180.103
Field p min = 84844 max = 157889
Field rho min = 0.974331 max = 1.75418
Field T min = 289.405 max = 314.4
Time = 8

BiCGStab:  Solving for Urelx, Initial residual = 0.146444, Final residual = 5.86069e-09, No Iterations 3
BiCGStab:  Solving for Urely, Initial residual = 0.117857, Final residual = 1.38763e-09, No Iterations 3
BiCGStab:  Solving for Urelz, Initial residual = 0.105677, Final residual = 2.07483e-09, No Iterations 3
BiCGStab:  Solving for p, Initial residual = 0.19849, Final residual = 0.00186228, No Iterations 28
time step continuity errors : sum local = 0.0918597, global = 0.0713984, cumulative = -0.841462
BiCGStab:  Solving for p, Initial residual = 0.129803, Final residual = 0.000793543, No Iterations 30
time step continuity errors : sum local = 0.0826561, global = 0.0618855, cumulative = -0.779576
BiCGStab:  Solving for i, Initial residual = 0.00140162, Final residual = 1.51161e-11, No Iterations 2
BiCGStab:  Solving for epsilon, Initial residual = 0.0576277, Final residual = 1.25862e-10, No Iterations 3
BiCGStab:  Solving for k, Initial residual = 0.057486, Final residual = 1.97505e-09, No Iterations 3
ExecutionTime = 1.92 s  ClockTime = 2 s

Flux divergence min = 5.99821e-05 max = 4608.81 average: 22.7248
Mach number min = 0.163051 max = 0.771045
Field Urel magnitude min = 0 max = 170.266
Field p min = 80019 max = 146078
Field rho min = 0.997379 max = 1.64981
Field T min = 291.214 max = 314.186
Time = 9

BiCGStab:  Solving for Urelx, Initial residual = 0.137832, Final residual = 9.98234e-11, No Iterations 4
BiCGStab:  Solving for Urely, Initial residual = 0.0989383, Final residual = 1.47898e-09, No Iterations 3
BiCGStab:  Solving for Urelz, Initial residual = 0.0975965, Final residual = 1.80392e-09, No Iterations 3
BiCGStab:  Solving for p, Initial residual = 0.182817, Final residual = 0.00150217, No Iterations 29
time step continuity errors : sum local = 0.078575, global = 0.0484227, cumulative = -0.731153
BiCGStab:  Solving for p, Initial residual = 0.120097, Final residual = 0.000997323, No Iterations 29
time step continuity errors : sum local = 0.0700453, global = 0.0382858, cumulative = -0.692868
BiCGStab:  Solving for i, Initial residual = 0.00136577, Final residual = 1.33355e-11, No Iterations 2
BiCGStab:  Solving for epsilon, Initial residual = 0.0457999, Final residual = 1.31201e-10, No Iterations 3
BiCGStab:  Solving for k, Initial residual = 0.0497323, Final residual = 1.61781e-09, No Iterations 3
ExecutionTime = 2.13 s  ClockTime = 2 s

Flux divergence min = 0.00013599 max = 3536.85 average: 21.542
Mach number min = 0.185207 max = 0.751575
Field Urel magnitude min = 0 max = 162.513
Field p min = 77652.7 max = 148356
Field rho min = 1.01896 max = 1.61284
Field T min = 292.59 max = 313.955
Time = 10

BiCGStab:  Solving for Urelx, Initial residual = 0.125229, Final residual = 5.06025e-10, No Iterations 4
BiCGStab:  Solving for Urely, Initial residual = 0.0805291, Final residual = 1.03562e-09, No Iterations 3
BiCGStab:  Solving for Urelz, Initial residual = 0.0895449, Final residual = 2.57142e-09, No Iterations 3
BiCGStab:  Solving for p, Initial residual = 0.168082, Final residual = 0.00146906, No Iterations 22
time step continuity errors : sum local = 0.0560533, global = 0.00938084, cumulative = -0.683487
BiCGStab:  Solving for p, Initial residual = 0.112027, Final residual = 0.000911155, No Iterations 22
time step continuity errors : sum local = 0.0530826, global = 0.0032879, cumulative = -0.680199
BiCGStab:  Solving for i, Initial residual = 0.00148177, Final residual = 1.13422e-11, No Iterations 2
BiCGStab:  Solving for epsilon, Initial residual = 0.0371195, Final residual = 1.33225e-10, No Iterations 3
BiCGStab:  Solving for k, Initial residual = 0.0453876, Final residual = 1.314e-09, No Iterations 3
ExecutionTime = 2.31 s  ClockTime = 3 s

Flux divergence min = 0.000107743 max = 5618.62 average: 23.4612
Mach number min = 0.179172 max = 0.743667
Field Urel magnitude min = 0 max = 160.942
Field p min = 79004.4 max = 145124
Field rho min = 1.05289 max = 1.60741
Field T min = 292.831 max = 313.598
Time = 11

BiCGStab:  Solving for Urelx, Initial residual = 0.109735, Final residual = 2.18873e-10, No Iterations 4
BiCGStab:  Solving for Urely, Initial residual = 0.0740068, Final residual = 9.31085e-10, No Iterations 3
BiCGStab:  Solving for Urelz, Initial residual = 0.0819063, Final residual = 2.53267e-09, No Iterations 3
BiCGStab:  Solving for p, Initial residual = 0.168064, Final residual = 0.0011896, No Iterations 25
time step continuity errors : sum local = 0.0505371, global = -0.0186722, cumulative = -0.698871
BiCGStab:  Solving for p, Initial residual = 0.113223, Final residual = 0.000717658, No Iterations 27
time step continuity errors : sum local = 0.0518358, global = -0.0263479, cumulative = -0.725219
BiCGStab:  Solving for i, Initial residual = 0.0016512, Final residual = 1.05368e-11, No Iterations 2
BiCGStab:  Solving for epsilon, Initial residual = 0.030739, Final residual = 8.63227e-11, No Iterations 3
BiCGStab:  Solving for k, Initial residual = 0.0424884, Final residual = 1.20262e-09, No Iterations 3
ExecutionTime = 2.52 s  ClockTime = 3 s

Flux divergence min = 1.76498e-05 max = 3712.29 average: 27.5306
Mach number min = 0.156455 max = 0.748262
Field Urel magnitude min = 0 max = 165.283
Field p min = 88572.6 max = 141808
Field rho min = 1.08857 max = 1.60985
Field T min = 292.322 max = 313.163
Time = 12

BiCGStab:  Solving for Urelx, Initial residual = 0.0974964, Final residual = 7.00173e-09, No Iterations 3
BiCGStab:  Solving for Urely, Initial residual = 0.0728153, Final residual = 1.08182e-09, No Iterations 3
BiCGStab:  Solving for Urelz, Initial residual = 0.0752959, Final residual = 1.95275e-09, No Iterations 3
BiCGStab:  Solving for p, Initial residual = 0.170992, Final residual = 0.00130191, No Iterations 31
time step continuity errors : sum local = 0.0548766, global = -0.0320117, cumulative = -0.757231
BiCGStab:  Solving for p, Initial residual = 0.115158, Final residual = 0.0010345, No Iterations 29
time step continuity errors : sum local = 0.0580315, global = -0.0398046, cumulative = -0.797035
BiCGStab:  Solving for i, Initial residual = 0.00172025, Final residual = 1.114e-11, No Iterations 2
BiCGStab:  Solving for epsilon, Initial residual = 0.0267701, Final residual = 8.50201e-11, No Iterations 3
BiCGStab:  Solving for k, Initial residual = 0.0394088, Final residual = 1.19877e-09, No Iterations 3
ExecutionTime = 2.73 s  ClockTime = 3 s

Flux divergence min = 6.93741e-05 max = 3944.15 average: 29.8832
Mach number min = 0.129371 max = 0.758736
Field Urel magnitude min = 0 max = 172.309
Field p min = 91875.4 max = 156374
Field rho min = 1.14916 max = 1.61082
Field T min = 291.232 max = 312.737
Time = 13

BiCGStab:  Solving for Urelx, Initial residual = 0.0959769, Final residual = 1.15312e-10, No Iterations 4
BiCGStab:  Solving for Urely, Initial residual = 0.0653147, Final residual = 1.041e-09, No Iterations 3
BiCGStab:  Solving for Urelz, Initial residual = 0.0683778, Final residual = 1.75519e-09, No Iterations 3
BiCGStab:  Solving for p, Initial residual = 0.169811, Final residual = 0.00112924, No Iterations 29
time step continuity errors : sum local = 0.0526854, global = -0.0293516, cumulative = -0.826387
BiCGStab:  Solving for p, Initial residual = 0.114091, Final residual = 0.000786883, No Iterations 29
time step continuity errors : sum local = 0.0552109, global = -0.035426, cumulative = -0.861813
BiCGStab:  Solving for i, Initial residual = 0.00152939, Final residual = 1.02296e-11, No Iterations 2
BiCGStab:  Solving for epsilon, Initial residual = 0.0244892, Final residual = 6.68857e-11, No Iterations 3
BiCGStab:  Solving for k, Initial residual = 0.036322, Final residual = 1.15169e-09, No Iterations 3
ExecutionTime = 2.94 s  ClockTime = 3 s

Flux divergence min = 0.000296777 max = 3397.13 average: 24.4833
Mach number min = 0.131256 max = 0.769351
Field Urel magnitude min = 0 max = 177.597
Field p min = 93606.8 max = 161949
Field rho min = 1.14979 max = 1.65721
Field T min = 290.397 max = 312.388
Time = 14

BiCGStab:  Solving for Urelx, Initial residual = 0.0972894, Final residual = 4.8469e-09, No Iterations 3
BiCGStab:  Solving for Urely, Initial residual = 0.0606071, Final residual = 1.0278e-09, No Iterations 3
BiCGStab:  Solving for Urelz, Initial residual = 0.0645234, Final residual = 1.93086e-09, No Iterations 3
BiCGStab:  Solving for p, Initial residual = 0.168564, Final residual = 0.0013159, No Iterations 23
time step continuity errors : sum local = 0.0427446, global = -0.0143812, cumulative = -0.876194
BiCGStab:  Solving for p, Initial residual = 0.113134, Final residual = 0.00112347, No Iterations 20
time step continuity errors : sum local = 0.0425716, global = -0.0176878, cumulative = -0.893882
BiCGStab:  Solving for i, Initial residual = 0.00133023, Final residual = 9.99347e-12, No Iterations 2
BiCGStab:  Solving for epsilon, Initial residual = 0.0226294, Final residual = 6.29127e-11, No Iterations 3
BiCGStab:  Solving for k, Initial residual = 0.0339353, Final residual = 1.07312e-09, No Iterations 3
ExecutionTime = 3.13 s  ClockTime = 3 s

Flux divergence min = 0.000168041 max = 2291.75 average: 18.8934
Mach number min = 0.162593 max = 0.770176
Field Urel magnitude min = 0 max = 178.397
Field p min = 95425.8 max = 157752
Field rho min = 1.15298 max = 1.68309
Field T min = 290.335 max = 312.095
Time = 15

BiCGStab:  Solving for Urelx, Initial residual = 0.0972137, Final residual = 6.80187e-09, No Iterations 3
BiCGStab:  Solving for Urely, Initial residual = 0.0594088, Final residual = 1.07472e-09, No Iterations 3
BiCGStab:  Solving for Urelz, Initial residual = 0.0632272, Final residual = 2.50195e-09, No Iterations 3
BiCGStab:  Solving for p, Initial residual = 0.166176, Final residual = 0.00163124, No Iterations 22
time step continuity errors : sum local = 0.03536, global = 0.000486219, cumulative = -0.893396
BiCGStab:  Solving for p, Initial residual = 0.110685, Final residual = 0.000599054, No Iterations 23
time step continuity errors : sum local = 0.033784, global = 0.000138781, cumulative = -0.893257
BiCGStab:  Solving for i, Initial residual = 0.00113544, Final residual = 9.06891e-12, No Iterations 2
BiCGStab:  Solving for epsilon, Initial residual = 0.0207947, Final residual = 5.94981e-11, No Iterations 3
BiCGStab:  Solving for k, Initial residual = 0.0324159, Final residual = 1.06303e-09, No Iterations 3
ExecutionTime = 3.33 s  ClockTime = 4 s

Flux divergence min = 4.76126e-08 max = 1541.52 average: 12.9335
Mach number min = 0.179603 max = 0.759083
Field Urel magnitude min = 0 max = 174.322
Field p min = 87129 max = 146851
Field rho min = 1.10807 max = 1.64021
Field T min = 291.107 max = 311.785
Time = 16

BiCGStab:  Solving for Urelx, Initial residual = 0.0941128, Final residual = 9.92967e-09, No Iterations 3
BiCGStab:  Solving for Urely, Initial residual = 0.0564008, Final residual = 8.98634e-10, No Iterations 3
BiCGStab:  Solving for Urelz, Initial residual = 0.0623044, Final residual = 2.82155e-09, No Iterations 3
BiCGStab:  Solving for p, Initial residual = 0.160913, Final residual = 0.00105231, No Iterations 27
time step continuity errors : sum local = 0.0385493, global = 0.0188999, cumulative = -0.874357
BiCGStab:  Solving for p, Initial residual = 0.106759, Final residual = 0.000768015, No Iterations 26
time step continuity errors : sum local = 0.0360997, global = 0.0157229, cumulative = -0.858634
BiCGStab:  Solving for i, Initial residual = 0.00114859, Final residual = 8.80123e-12, No Iterations 2
BiCGStab:  Solving for epsilon, Initial residual = 0.01871, Final residual = 6.02942e-11, No Iterations 3
BiCGStab:  Solving for k, Initial residual = 0.031576, Final residual = 1.13517e-09, No Iterations 3
ExecutionTime = 3.53 s  ClockTime = 4 s

Flux divergence min = 7.72638e-06 max = 2609.68 average: 13.9036
Mach number min = 0.190626 max = 0.742731
Field Urel magnitude min = 0 max = 169.889
Field p min = 88737.9 max = 144401
Field rho min = 1.0821 max = 1.62186
Field T min = 291.058 max = 311.438
Time = 17

BiCGStab:  Solving for Urelx, Initial residual = 0.088161, Final residual = 4.24229e-09, No Iterations 3
BiCGStab:  Solving for Urely, Initial residual = 0.0535714, Final residual = 9.22063e-10, No Iterations 3
BiCGStab:  Solving for Urelz, Initial residual = 0.0614235, Final residual = 2.81835e-09, No Iterations 3
BiCGStab:  Solving for p, Initial residual = 0.156829, Final residual = 0.001482, No Iterations 28
time step continuity errors : sum local = 0.0425355, global = 0.0248582, cumulative = -0.833776
BiCGStab:  Solving for p, Initial residual = 0.104602, Final residual = 0.000998404, No Iterations 28
time step continuity errors : sum local = 0.0396657, global = 0.0213104, cumulative = -0.812465
BiCGStab:  Solving for i, Initial residual = 0.00121309, Final residual = 8.90352e-12, No Iterations 2
BiCGStab:  Solving for epsilon, Initial residual = 0.0169899, Final residual = 6.76572e-11, No Iterations 3
BiCGStab:  Solving for k, Initial residual = 0.0311934, Final residual = 1.19805e-09, No Iterations 3
ExecutionTime = 3.73 s  ClockTime = 4 s

Flux divergence min = 6.02626e-06 max = 4346.61 average: 16.4695
Mach number min = 0.19903 max = 0.727943
Field Urel magnitude min = 0 max = 169.908
Field p min = 89004.1 max = 143099
Field rho min = 1.13272 max = 1.61498
Field T min = 291.073 max = 311.701
Time = 18

BiCGStab:  Solving for Urelx, Initial residual = 0.0819466, Final residual = 5.81534e-09, No Iterations 3
BiCGStab:  Solving for Urely, Initial residual = 0.0533187, Final residual = 7.70555e-10, No Iterations 3
BiCGStab:  Solving for Urelz, Initial residual = 0.0586152, Final residual = 2.75549e-09, No Iterations 3
BiCGStab:  Solving for p, Initial residual = 0.153378, Final residual = 0.00149421, No Iterations 22
time step continuity errors : sum local = 0.0364594, global = 0.0142978, cumulative = -0.798168
BiCGStab:  Solving for p, Initial residual = 0.10277, Final residual = 0.000970404, No Iterations 20
time step continuity errors : sum local = 0.0341057, global = 0.0114693, cumulative = -0.786698
BiCGStab:  Solving for i, Initial residual = 0.00120422, Final residual = 7.94264e-12, No Iterations 2
BiCGStab:  Solving for epsilon, Initial residual = 0.0162582, Final residual = 5.74938e-11, No Iterations 3
BiCGStab:  Solving for k, Initial residual = 0.0308028, Final residual = 1.21913e-09, No Iterations 3
ExecutionTime = 3.93 s  ClockTime = 4 s

Flux divergence min = 0.00191239 max = 4459.41 average: 15.8827
Mach number min = 0.19939 max = 0.719224
Field Urel magnitude min = 0 max = 170.258
Field p min = 94791.6 max = 141778
Field rho min = 1.14097 max = 1.61141
Field T min = 291.032 max = 314.41
Time = 19

BiCGStab:  Solving for Urelx, Initial residual = 0.0773048, Final residual = 4.6787e-09, No Iterations 3
BiCGStab:  Solving for Urely, Initial residual = 0.054952, Final residual = 7.06942e-10, No Iterations 3
BiCGStab:  Solving for Urelz, Initial residual = 0.0554771, Final residual = 2.92396e-09, No Iterations 3
BiCGStab:  Solving for p, Initial residual = 0.148192, Final residual = 0.00125773, No Iterations 17
time step continuity errors : sum local = 0.0312231, global = 0.0051298, cumulative = -0.781568
BiCGStab:  Solving for p, Initial residual = 0.0994817, Final residual = 0.000925756, No Iterations 19
time step continuity errors : sum local = 0.0295118, global = 0.00160314, cumulative = -0.779965
BiCGStab:  Solving for i, Initial residual = 0.00124312, Final residual = 7.80404e-12, No Iterations 2
BiCGStab:  Solving for epsilon, Initial residual = 0.0155349, Final residual = 5.0471e-11, No Iterations 3
BiCGStab:  Solving for k, Initial residual = 0.0300981, Final residual = 1.19914e-09, No Iterations 3
ExecutionTime = 4.11 s  ClockTime = 4 s

Flux divergence min = 0.000627727 max = 1921.71 average: 15.0805
Mach number min = 0.172265 max = 0.722105
Field Urel magnitude min = 0 max = 171.302
Field p min = 93620.7 max = 142308
Field rho min = 1.12172 max = 1.61128
Field T min = 290.862 max = 315.019
Time = 20

BiCGStab:  Solving for Urelx, Initial residual = 0.0746161, Final residual = 7.71897e-11, No Iterations 4
BiCGStab:  Solving for Urely, Initial residual = 0.0554362, Final residual = 7.66879e-10, No Iterations 3
BiCGStab:  Solving for Urelz, Initial residual = 0.0522221, Final residual = 3.09615e-09, No Iterations 3
BiCGStab:  Solving for p, Initial residual = 0.146282, Final residual = 0.00143546, No Iterations 21
time step continuity errors : sum local = 0.0299622, global = -0.00460624, cumulative = -0.784572
BiCGStab:  Solving for p, Initial residual = 0.0990205, Final residual = 0.000939061, No Iterations 22
time step continuity errors : sum local = 0.0297566, global = -0.00902156, cumulative = -0.793593
BiCGStab:  Solving for i, Initial residual = 0.00124102, Final residual = 7.84634e-12, No Iterations 2
BiCGStab:  Solving for epsilon, Initial residual = 0.0150103, Final residual = 4.42763e-11, No Iterations 3
BiCGStab:  Solving for k, Initial residual = 0.0292034, Final residual = 1.16029e-09, No Iterations 3
ExecutionTime = 4.29 s  ClockTime = 5 s

Flux divergence min = 3.89789e-05 max = 1692.06 average: 14.396
Mach number min = 0.152847 max = 0.728469
Field Urel magnitude min = 0 max = 172.637
Field p min = 94080.8 max = 143916
Field rho min = 1.10365 max = 1.61097
Field T min = 290.65 max = 314.729
Time = 21

BiCGStab:  Solving for Urelx, Initial residual = 0.0709622, Final residual = 6.463e-09, No Iterations 3
BiCGStab:  Solving for Urely, Initial residual = 0.0518415, Final residual = 7.86748e-10, No Iterations 3
BiCGStab:  Solving for Urelz, Initial residual = 0.0495945, Final residual = 3.16819e-09, No Iterations 3
BiCGStab:  Solving for p, Initial residual = 0.149525, Final residual = 0.00142398, No Iterations 19
time step continuity errors : sum local = 0.0304688, global = -0.00851966, cumulative = -0.802113
BiCGStab:  Solving for p, Initial residual = 0.101516, Final residual = 0.00072043, No Iterations 24
time step continuity errors : sum local = 0.0307189, global = -0.0125992, cumulative = -0.814712
BiCGStab:  Solving for i, Initial residual = 0.00116415, Final residual = 7.28393e-12, No Iterations 2
BiCGStab:  Solving for epsilon, Initial residual = 0.0147698, Final residual = 9.82932e-09, No Iterations 2
BiCGStab:  Solving for k, Initial residual = 0.0283851, Final residual = 1.1152e-09, No Iterations 3
ExecutionTime = 4.48 s  ClockTime = 5 s

Flux divergence min = 6.48606e-07 max = 3315.12 average: 11.9979
Mach number min = 0.150715 max = 0.734425
Field Urel magnitude min = 0 max = 173.761
Field p min = 96314.3 max = 143129
Field rho min = 1.11552 max = 1.61054
Field T min = 290.471 max = 313.95
Time = 22

BiCGStab:  Solving for Urelx, Initial residual = 0.0699849, Final residual = 4.4206e-09, No Iterations 3
BiCGStab:  Solving for Urely, Initial residual = 0.0451894, Final residual = 6.7125e-10, No Iterations 3
BiCGStab:  Solving for Urelz, Initial residual = 0.0471701, Final residual = 3.04639e-09, No Iterations 3
BiCGStab:  Solving for p, Initial residual = 0.150051, Final residual = 0.00107535, No Iterations 16
time step continuity errors : sum local = 0.0289604, global = -0.00636495, cumulative = -0.821077
BiCGStab:  Solving for p, Initial residual = 0.101633, Final residual = 0.000902811, No Iterations 16
time step continuity errors : sum local = 0.0279893, global = -0.00763339, cumulative = -0.82871
BiCGStab:  Solving for i, Initial residual = 0.00106202, Final residual = 6.71698e-12, No Iterations 2
BiCGStab:  Solving for epsilon, Initial residual = 0.0146477, Final residual = 8.79641e-09, No Iterations 2
BiCGStab:  Solving for k, Initial residual = 0.0276803, Final residual = 1.05988e-09, No Iterations 3
ExecutionTime = 4.66 s  ClockTime = 5 s

Flux divergence min = 0.000400341 max = 4376.66 average: 10.3672
Mach number min = 0.149007 max = 0.738013
Field Urel magnitude min = 0 max = 174.708
Field p min = 95622.8 max = 144126
Field rho min = 1.14115 max = 1.6115
Field T min = 290.321 max = 313.476
Time = 23

BiCGStab:  Solving for Urelx, Initial residual = 0.0706076, Final residual = 5.93552e-09, No Iterations 3
BiCGStab:  Solving for Urely, Initial residual = 0.0401823, Final residual = 7.02188e-10, No Iterations 3
BiCGStab:  Solving for Urelz, Initial residual = 0.0448018, Final residual = 2.7451e-09, No Iterations 3
BiCGStab:  Solving for p, Initial residual = 0.143786, Final residual = 0.00129885, No Iterations 16
time step continuity errors : sum local = 0.0261806, global = 1.83794e-05, cumulative = -0.828692
BiCGStab:  Solving for p, Initial residual = 0.0973381, Final residual = 0.000927932, No Iterations 16
time step continuity errors : sum local = 0.0250233, global = -0.000778445, cumulative = -0.82947
BiCGStab:  Solving for i, Initial residual = 0.000989506, Final residual = 6.569e-12, No Iterations 2
BiCGStab:  Solving for epsilon, Initial residual = 0.0141734, Final residual = 7.99057e-09, No Iterations 2
BiCGStab:  Solving for k, Initial residual = 0.0270143, Final residual = 1.06078e-09, No Iterations 3
ExecutionTime = 4.83 s  ClockTime = 5 s

Flux divergence min = 3.24886e-06 max = 3962.01 average: 8.28245
Mach number min = 0.148288 max = 0.73901
Field Urel magnitude min = 0 max = 175.664
Field p min = 92030.3 max = 144165
Field rho min = 1.12838 max = 1.6168
Field T min = 290.167 max = 313.545
Time = 24

BiCGStab:  Solving for Urelx, Initial residual = 0.0712546, Final residual = 5.1287e-09, No Iterations 3
BiCGStab:  Solving for Urely, Initial residual = 0.0380687, Final residual = 7.25237e-10, No Iterations 3
BiCGStab:  Solving for Urelz, Initial residual = 0.043523, Final residual = 2.80169e-09, No Iterations 3
BiCGStab:  Solving for p, Initial residual = 0.139293, Final residual = 0.00137375, No Iterations 21
time step continuity errors : sum local = 0.026404, global = 0.00927715, cumulative = -0.820193
BiCGStab:  Solving for p, Initial residual = 0.0943099, Final residual = 0.000845364, No Iterations 25
time step continuity errors : sum local = 0.0251896, global = 0.00846424, cumulative = -0.811729
BiCGStab:  Solving for i, Initial residual = 0.00101662, Final residual = 6.31427e-12, No Iterations 2
BiCGStab:  Solving for epsilon, Initial residual = 0.0136978, Final residual = 7.45849e-09, No Iterations 2
BiCGStab:  Solving for k, Initial residual = 0.0266298, Final residual = 1.12162e-09, No Iterations 3
ExecutionTime = 5.03 s  ClockTime = 5 s

Flux divergence min = 2.14188e-05 max = 2375.63 average: 9.11797
Mach number min = 0.159182 max = 0.737895
Field Urel magnitude min = 0 max = 176.545
Field p min = 96345.9 max = 143108
Field rho min = 1.12271 max = 1.61388
Field T min = 290.026 max = 313.393
Time = 25

BiCGStab:  Solving for Urelx, Initial residual = 0.0707347, Final residual = 5.84389e-11, No Iterations 4
BiCGStab:  Solving for Urely, Initial residual = 0.0379005, Final residual = 6.95328e-10, No Iterations 3
BiCGStab:  Solving for Urelz, Initial residual = 0.0428945, Final residual = 3.07028e-09, No Iterations 3
BiCGStab:  Solving for p, Initial residual = 0.138404, Final residual = 0.00125914, No Iterations 23
time step continuity errors : sum local = 0.0279165, global = 0.0144201, cumulative = -0.797309
BiCGStab:  Solving for p, Initial residual = 0.0934912, Final residual = 0.000726313, No Iterations 26
time step continuity errors : sum local = 0.0269335, global = 0.0141243, cumulative = -0.783185
BiCGStab:  Solving for i, Initial residual = 0.00105312, Final residual = 6.37145e-12, No Iterations 2
BiCGStab:  Solving for epsilon, Initial residual = 0.0130944, Final residual = 6.94572e-09, No Iterations 2
BiCGStab:  Solving for k, Initial residual = 0.0263825, Final residual = 1.21896e-09, No Iterations 3
ExecutionTime = 5.23 s  ClockTime = 6 s

Flux divergence min = 0.000110841 max = 4038.4 average: 9.62882
Mach number min = 0.176786 max = 0.735286
Field Urel magnitude min = 0 max = 177.219
Field p min = 96162.9 max = 141556
Field rho min = 1.14742 max = 1.60925
Field T min = 289.919 max = 313.527
Time = 26

BiCGStab:  Solving for Urelx, Initial residual = 0.0700302, Final residual = 5.5141e-09, No Iterations 3
BiCGStab:  Solving for Urely, Initial residual = 0.0380773, Final residual = 5.64704e-10, No Iterations 3
BiCGStab:  Solving for Urelz, Initial residual = 0.0413411, Final residual = 2.92374e-09, No Iterations 3
BiCGStab:  Solving for p, Initial residual = 0.13591, Final residual = 0.00107344, No Iterations 23
time step continuity errors : sum local = 0.0266769, global = 0.0122945, cumulative = -0.77089
BiCGStab:  Solving for p, Initial residual = 0.0919966, Final residual = 0.000341432, No Iterations 29
time step continuity errors : sum local = 0.0254248, global = 0.0110347, cumulative = -0.759855
BiCGStab:  Solving for i, Initial residual = 0.000999427, Final residual = 6.02695e-12, No Iterations 2
BiCGStab:  Solving for epsilon, Initial residual = 0.0126371, Final residual = 6.40985e-09, No Iterations 2
BiCGStab:  Solving for k, Initial residual = 0.0260272, Final residual = 1.28631e-09, No Iterations 3
ExecutionTime = 5.43 s  ClockTime = 6 s

Flux divergence min = 5.80631e-06 max = 4321.87 average: 7.52069
Mach number min = 0.192048 max = 0.731394
Field Urel magnitude min = 0 max = 177.689
Field p min = 95423.3 max = 140346
Field rho min = 1.1362 max = 1.60905
Field T min = 289.848 max = 313.972
Time = 27

BiCGStab:  Solving for Urelx, Initial residual = 0.0688505, Final residual = 4.56074e-09, No Iterations 3
BiCGStab:  Solving for Urely, Initial residual = 0.0383202, Final residual = 5.14182e-10, No Iterations 3
BiCGStab:  Solving for Urelz, Initial residual = 0.0396383, Final residual = 2.69456e-09, No Iterations 3
BiCGStab:  Solving for p, Initial residual = 0.132699, Final residual = 0.00125615, No Iterations 17
time step continuity errors : sum local = 0.0236715, global = 0.0039668, cumulative = -0.755889
BiCGStab:  Solving for p, Initial residual = 0.0903372, Final residual = 0.000782031, No Iterations 16
time step continuity errors : sum local = 0.0227317, global = 0.00272384, cumulative = -0.753165
BiCGStab:  Solving for i, Initial residual = 0.00102019, Final residual = 6.16548e-12, No Iterations 2
BiCGStab:  Solving for epsilon, Initial residual = 0.0125041, Final residual = 5.86746e-09, No Iterations 2
BiCGStab:  Solving for k, Initial residual = 0.0257144, Final residual = 1.23972e-09, No Iterations 3
ExecutionTime = 5.6 s  ClockTime = 6 s

Flux divergence min = 0.000381972 max = 4814.03 average: 8.2815
Mach number min = 0.197147 max = 0.726577
Field Urel magnitude min = 0 max = 177.996
Field p min = 94976.5 max = 140033
Field rho min = 1.13082 max = 1.60876
Field T min = 289.806 max = 314.045
Time = 28

BiCGStab:  Solving for Urelx, Initial residual = 0.0663158, Final residual = 4.77791e-11, No Iterations 4
BiCGStab:  Solving for Urely, Initial residual = 0.0374913, Final residual = 4.97795e-10, No Iterations 3
BiCGStab:  Solving for Urelz, Initial residual = 0.0383428, Final residual = 2.65327e-09, No Iterations 3
BiCGStab:  Solving for p, Initial residual = 0.13237, Final residual = 0.00122583, No Iterations 17
time step continuity errors : sum local = 0.0220778, global = -0.00245703, cumulative = -0.755622
BiCGStab:  Solving for p, Initial residual = 0.0911433, Final residual = 0.00043765, No Iterations 20
time step continuity errors : sum local = 0.0216113, global = -0.00437003, cumulative = -0.759992
BiCGStab:  Solving for i, Initial residual = 0.0010393, Final residual = 5.68635e-12, No Iterations 2
BiCGStab:  Solving for epsilon, Initial residual = 0.0125889, Final residual = 5.34335e-09, No Iterations 2
BiCGStab:  Solving for k, Initial residual = 0.0254244, Final residual = 1.10477e-09, No Iterations 3
ExecutionTime = 5.78 s  ClockTime = 6 s

Flux divergence min = 1.8973e-05 max = 3236.12 average: 7.38793
Mach number min = 0.188216 max = 0.721852
Field Urel magnitude min = 0 max = 178.261
Field p min = 92111.3 max = 140487
Field rho min = 1.13125 max = 1.60834
Field T min = 289.773 max = 313.527
Time = 29

BiCGStab:  Solving for Urelx, Initial residual = 0.0628276, Final residual = 2.81954e-11, No Iterations 4
BiCGStab:  Solving for Urely, Initial residual = 0.0356643, Final residual = 4.84584e-10, No Iterations 3
BiCGStab:  Solving for Urelz, Initial residual = 0.0383624, Final residual = 2.72802e-09, No Iterations 3
BiCGStab:  Solving for p, Initial residual = 0.134123, Final residual = 0.00128176, No Iterations 24
time step continuity errors : sum local = 0.0217591, global = -0.00683978, cumulative = -0.766832
BiCGStab:  Solving for p, Initial residual = 0.0924434, Final residual = 0.000891588, No Iterations 20
time step continuity errors : sum local = 0.0220472, global = -0.00985408, cumulative = -0.776686
BiCGStab:  Solving for i, Initial residual = 0.00106183, Final residual = 5.61189e-12, No Iterations 2
BiCGStab:  Solving for epsilon, Initial residual = 0.0126068, Final residual = 4.91742e-09, No Iterations 2
BiCGStab:  Solving for k, Initial residual = 0.0250851, Final residual = 9.9612e-10, No Iterations 3
ExecutionTime = 5.98 s  ClockTime = 6 s

Flux divergence min = 0.000144724 max = 2523.22 average: 8.78409
Mach number min = 0.172297 max = 0.718836
Field Urel magnitude min = 0 max = 178.932
Field p min = 89883.2 max = 141302
Field rho min = 1.08419 max = 1.60775
Field T min = 289.666 max = 313.147
Time = 30

BiCGStab:  Solving for Urelx, Initial residual = 0.0591534, Final residual = 4.26622e-09, No Iterations 3
BiCGStab:  Solving for Urely, Initial residual = 0.034399, Final residual = 5.42048e-10, No Iterations 3
BiCGStab:  Solving for Urelz, Initial residual = 0.0377347, Final residual = 2.95313e-09, No Iterations 3
BiCGStab:  Solving for p, Initial residual = 0.133819, Final residual = 0.00116545, No Iterations 20
time step continuity errors : sum local = 0.0214413, global = -0.00779564, cumulative = -0.784481
BiCGStab:  Solving for p, Initial residual = 0.091779, Final residual = 0.000572771, No Iterations 22
time step continuity errors : sum local = 0.021501, global = -0.0101248, cumulative = -0.794606
BiCGStab:  Solving for i, Initial residual = 0.0010513, Final residual = 5.64201e-12, No Iterations 2
BiCGStab:  Solving for epsilon, Initial residual = 0.0123912, Final residual = 4.75049e-09, No Iterations 2
BiCGStab:  Solving for k, Initial residual = 0.0247244, Final residual = 1.01814e-09, No Iterations 3
ExecutionTime = 6.16 s  ClockTime = 7 s

Flux divergence min = 6.03277e-05 max = 2884.2 average: 7.9249
Mach number min = 0.145539 max = 0.718647
Field Urel magnitude min = 0 max = 180.17
Field p min = 92240 max = 141982
Field rho min = 1.07489 max = 1.60705
Field T min = 289.459 max = 313.024
Time = 31

BiCGStab:  Solving for Urelx, Initial residual = 0.0565191, Final residual = 3.35437e-09, No Iterations 3
BiCGStab:  Solving for Urely, Initial residual = 0.0333635, Final residual = 5.57231e-10, No Iterations 3
BiCGStab:  Solving for Urelz, Initial residual = 0.0363489, Final residual = 2.75042e-09, No Iterations 3
BiCGStab:  Solving for p, Initial residual = 0.131037, Final residual = 0.00128926, No Iterations 16
time step continuity errors : sum local = 0.020271, global = -0.0039804, cumulative = -0.798587
BiCGStab:  Solving for p, Initial residual = 0.089504, Final residual = 0.00087725, No Iterations 20
time step continuity errors : sum local = 0.0197235, global = -0.00568561, cumulative = -0.804272
BiCGStab:  Solving for i, Initial residual = 0.00107768, Final residual = 5.39155e-12, No Iterations 2
BiCGStab:  Solving for epsilon, Initial residual = 0.0121059, Final residual = 4.79204e-09, No Iterations 2
BiCGStab:  Solving for k, Initial residual = 0.024428, Final residual = 1.24754e-09, No Iterations 3
ExecutionTime = 6.34 s  ClockTime = 7 s

Flux divergence min = 5.58791e-06 max = 5099.29 average: 8.4955
Mach number min = 0.137319 max = 0.720874
Field Urel magnitude min = 0 max = 181.632
Field p min = 97684.4 max = 142246
Field rho min = 1.10747 max = 1.60629
Field T min = 289.208 max = 312.847
Time = 32

BiCGStab:  Solving for Urelx, Initial residual = 0.0555969, Final residual = 3.72108e-09, No Iterations 3
BiCGStab:  Solving for Urely, Initial residual = 0.0313336, Final residual = 4.38182e-10, No Iterations 3
BiCGStab:  Solving for Urelz, Initial residual = 0.0348288, Final residual = 2.62932e-09, No Iterations 3
BiCGStab:  Solving for p, Initial residual = 0.128592, Final residual = 0.00113912, No Iterations 19
time step continuity errors : sum local = 0.0191901, global = 0.00016072, cumulative = -0.804111
BiCGStab:  Solving for p, Initial residual = 0.0875538, Final residual = 0.000798065, No Iterations 17
time step continuity errors : sum local = 0.0183277, global = -0.000828411, cumulative = -0.80494
BiCGStab:  Solving for i, Initial residual = 0.00103136, Final residual = 5.17894e-12, No Iterations 2
BiCGStab:  Solving for epsilon, Initial residual = 0.0117848, Final residual = 4.95073e-09, No Iterations 2
BiCGStab:  Solving for k, Initial residual = 0.024222, Final residual = 1.55557e-09, No Iterations 3
ExecutionTime = 6.52 s  ClockTime = 7 s

Flux divergence min = 0.000138827 max = 5464.54 average: 7.25714
Mach number min = 0.14859 max = 0.725362
Field Urel magnitude min = 0 max = 182.953
Field p min = 98506.6 max = 142148
Field rho min = 1.1514 max = 1.60556
Field T min = 288.979 max = 312.837
Time = 33

BiCGStab:  Solving for Urelx, Initial residual = 0.0560574, Final residual = 3.02326e-09, No Iterations 3
BiCGStab:  Solving for Urely, Initial residual = 0.0289903, Final residual = 3.69983e-10, No Iterations 3
BiCGStab:  Solving for Urelz, Initial residual = 0.0336357, Final residual = 2.64272e-09, No Iterations 3
BiCGStab:  Solving for p, Initial residual = 0.12397, Final residual = 0.00121273, No Iterations 18
time step continuity errors : sum local = 0.0181251, global = 0.0040057, cumulative = -0.800934
BiCGStab:  Solving for p, Initial residual = 0.0842109, Final residual = 0.00080451, No Iterations 20
time step continuity errors : sum local = 0.0171993, global = 0.00328491, cumulative = -0.797649
BiCGStab:  Solving for i, Initial residual = 0.000972211, Final residual = 4.86621e-12, No Iterations 2
BiCGStab:  Solving for epsilon, Initial residual = 0.0114733, Final residual = 5.06693e-09, No Iterations 2
BiCGStab:  Solving for k, Initial residual = 0.0239236, Final residual = 1.72463e-09, No Iterations 3
ExecutionTime = 6.7 s  ClockTime = 7 s

Flux divergence min = 3.50228e-05 max = 3327.29 average: 6.40118
Mach number min = 0.159688 max = 0.728074
Field Urel magnitude min = 0 max = 183.719
Field p min = 97749.9 max = 141877
Field rho min = 1.15007 max = 1.60491
Field T min = 288.849 max = 312.663
Time = 34

BiCGStab:  Solving for Urelx, Initial residual = 0.0570934, Final residual = 3.54045e-09, No Iterations 3
BiCGStab:  Solving for Urely, Initial residual = 0.0272563, Final residual = 3.77127e-10, No Iterations 3
BiCGStab:  Solving for Urelz, Initial residual = 0.0321909, Final residual = 2.61888e-09, No Iterations 3
BiCGStab:  Solving for p, Initial residual = 0.121112, Final residual = 0.000423181, No Iterations 32
time step continuity errors : sum local = 0.018487, global = 0.0079852, cumulative = -0.789664
BiCGStab:  Solving for p, Initial residual = 0.0826177, Final residual = 0.000555116, No Iterations 22
time step continuity errors : sum local = 0.0174823, global = 0.00691408, cumulative = -0.78275
BiCGStab:  Solving for i, Initial residual = 0.000953558, Final residual = 4.73063e-12, No Iterations 2
BiCGStab:  Solving for epsilon, Initial residual = 0.0110802, Final residual = 5.00536e-09, No Iterations 2
BiCGStab:  Solving for k, Initial residual = 0.0235794, Final residual = 1.68699e-09, No Iterations 3
ExecutionTime = 6.9 s  ClockTime = 7 s

Flux divergence min = 5.96254e-05 max = 1100.02 average: 5.24944
Mach number min = 0.174591 max = 0.72633
Field Urel magnitude min = 0 max = 183.751
Field p min = 97269.3 max = 141595
Field rho min = 1.14707 max = 1.60436
Field T min = 288.852 max = 312.394
Time = 35

BiCGStab:  Solving for Urelx, Initial residual = 0.0576424, Final residual = 6.99276e-09, No Iterations 3
BiCGStab:  Solving for Urely, Initial residual = 0.0261674, Final residual = 3.62247e-10, No Iterations 3
BiCGStab:  Solving for Urelz, Initial residual = 0.0306672, Final residual = 2.22142e-09, No Iterations 3
BiCGStab:  Solving for p, Initial residual = 0.118778, Final residual = 0.00091645, No Iterations 24
time step continuity errors : sum local = 0.0187828, global = 0.00844693, cumulative = -0.774303
BiCGStab:  Solving for p, Initial residual = 0.0813684, Final residual = 0.000662001, No Iterations 24
time step continuity errors : sum local = 0.0179341, global = 0.00771115, cumulative = -0.766592
BiCGStab:  Solving for i, Initial residual = 0.000937929, Final residual = 4.72107e-12, No Iterations 2
BiCGStab:  Solving for epsilon, Initial residual = 0.0108758, Final residual = 4.7834e-09, No Iterations 2
BiCGStab:  Solving for k, Initial residual = 0.0232566, Final residual = 1.46894e-09, No Iterations 3
ExecutionTime = 7.1 s  ClockTime = 7 s

Flux divergence min = 5.48499e-05 max = 3509.18 average: 5.29017
Mach number min = 0.185877 max = 0.720627
Field Urel magnitude min = 0 max = 183.575
Field p min = 97265.4 max = 141390
Field rho min = 1.14783 max = 1.60389
Field T min = 288.894 max = 312.201
Time = 36

BiCGStab:  Solving for Urelx, Initial residual = 0.0569065, Final residual = 1.93321e-11, No Iterations 4
BiCGStab:  Solving for Urely, Initial residual = 0.0266023, Final residual = 3.51594e-10, No Iterations 3
BiCGStab:  Solving for Urelz, Initial residual = 0.0297894, Final residual = 2.03063e-09, No Iterations 3
BiCGStab:  Solving for p, Initial residual = 0.116414, Final residual = 0.000594986, No Iterations 25
time step continuity errors : sum local = 0.0181116, global = 0.00637421, cumulative = -0.760218
BiCGStab:  Solving for p, Initial residual = 0.0801233, Final residual = 0.000782855, No Iterations 22
time step continuity errors : sum local = 0.017234, global = 0.00485465, cumulative = -0.755363
BiCGStab:  Solving for i, Initial residual = 0.000918731, Final residual = 4.40542e-12, No Iterations 2
BiCGStab:  Solving for epsilon, Initial residual = 0.010923, Final residual = 4.59607e-09, No Iterations 2
BiCGStab:  Solving for k, Initial residual = 0.0230087, Final residual = 1.16536e-09, No Iterations 3
ExecutionTime = 7.29 s  ClockTime = 8 s

Flux divergence min = 0.000263968 max = 4337.86 average: 5.29371
Mach number min = 0.190067 max = 0.713412
Field Urel magnitude min = 0 max = 183.742
Field p min = 97653.4 max = 141233
Field rho min = 1.15298 max = 1.60343
Field T min = 288.875 max = 312.175
Time = 37

BiCGStab:  Solving for Urelx, Initial residual = 0.0546643, Final residual = 8.37256e-09, No Iterations 3
BiCGStab:  Solving for Urely, Initial residual = 0.0281249, Final residual = 3.99006e-10, No Iterations 3
BiCGStab:  Solving for Urelz, Initial residual = 0.0298384, Final residual = 2.04506e-09, No Iterations 3
BiCGStab:  Solving for p, Initial residual = 0.114654, Final residual = 0.0011061, No Iterations 20
time step continuity errors : sum local = 0.0167941, global = 0.00239467, cumulative = -0.752968
BiCGStab:  Solving for p, Initial residual = 0.0790032, Final residual = 0.000722208, No Iterations 18
time step continuity errors : sum local = 0.016289, global = 0.00207871, cumulative = -0.75089
BiCGStab:  Solving for i, Initial residual = 0.00095141, Final residual = 4.73734e-12, No Iterations 2
BiCGStab:  Solving for epsilon, Initial residual = 0.0109323, Final residual = 4.62887e-09, No Iterations 2
BiCGStab:  Solving for k, Initial residual = 0.0228099, Final residual = 1.11063e-09, No Iterations 3
ExecutionTime = 7.48 s  ClockTime = 8 s

Flux divergence min = 0.000698959 max = 3424.73 average: 5.33333
Mach number min = 0.186017 max = 0.707311
Field Urel magnitude min = 0 max = 184.373
Field p min = 96238.1 max = 141001
Field rho min = 1.16126 max = 1.60295
Field T min = 288.77 max = 312.159
Time = 38

BiCGStab:  Solving for Urelx, Initial residual = 0.0518978, Final residual = 5.61636e-09, No Iterations 3
BiCGStab:  Solving for Urely, Initial residual = 0.0291062, Final residual = 4.03579e-10, No Iterations 3
BiCGStab:  Solving for Urelz, Initial residual = 0.0305273, Final residual = 2.31487e-09, No Iterations 3
BiCGStab:  Solving for p, Initial residual = 0.112627, Final residual = 0.000917718, No Iterations 17
time step continuity errors : sum local = 0.0158796, global = 0.000721546, cumulative = -0.750168
BiCGStab:  Solving for p, Initial residual = 0.0774427, Final residual = 0.000758735, No Iterations 16
time step continuity errors : sum local = 0.0154232, global = 0.000188279, cumulative = -0.74998
BiCGStab:  Solving for i, Initial residual = 0.000990601, Final residual = 4.4898e-12, No Iterations 2
BiCGStab:  Solving for epsilon, Initial residual = 0.010827, Final residual = 4.90463e-09, No Iterations 2
BiCGStab:  Solving for k, Initial residual = 0.0226569, Final residual = 1.34093e-09, No Iterations 3
ExecutionTime = 7.65 s  ClockTime = 8 s

Flux divergence min = 1.91417e-06 max = 1445.11 average: 5.75899
Mach number min = 0.176452 max = 0.70455
Field Urel magnitude min = 0 max = 185.209
Field p min = 93143.1 max = 140596
Field rho min = 1.12233 max = 1.60241
Field T min = 288.627 max = 312.199
Time = 39

BiCGStab:  Solving for Urelx, Initial residual = 0.0496762, Final residual = 4.99251e-09, No Iterations 3
BiCGStab:  Solving for Urely, Initial residual = 0.0286693, Final residual = 3.36619e-10, No Iterations 3
BiCGStab:  Solving for Urelz, Initial residual = 0.0307746, Final residual = 2.45049e-09, No Iterations 3
BiCGStab:  Solving for p, Initial residual = 0.110287, Final residual = 0.000966483, No Iterations 15
time step continuity errors : sum local = 0.0151025, global = -0.000162794, cumulative = -0.750143
BiCGStab:  Solving for p, Initial residual = 0.0758814, Final residual = 0.000572618, No Iterations 16
time step continuity errors : sum local = 0.0146026, global = -0.000827821, cumulative = -0.75097
BiCGStab:  Solving for i, Initial residual = 0.000996099, Final residual = 4.24138e-12, No Iterations 2
BiCGStab:  Solving for epsilon, Initial residual = 0.0106313, Final residual = 5.26132e-09, No Iterations 2
BiCGStab:  Solving for k, Initial residual = 0.0224289, Final residual = 2.10329e-09, No Iterations 3
ExecutionTime = 7.83 s  ClockTime = 8 s

Flux divergence min = 5.30338e-05 max = 1351.84 average: 5.36185
Mach number min = 0.169051 max = 0.706173
Field Urel magnitude min = 0 max = 185.996
Field p min = 93763.3 max = 140134
Field rho min = 1.10321 max = 1.60178
Field T min = 288.492 max = 312.217
Time = 40

BiCGStab:  Solving for Urelx, Initial residual = 0.0486831, Final residual = 3.03917e-09, No Iterations 3
BiCGStab:  Solving for Urely, Initial residual = 0.0267559, Final residual = 2.60787e-10, No Iterations 3
BiCGStab:  Solving for Urelz, Initial residual = 0.0301711, Final residual = 2.33647e-09, No Iterations 3
BiCGStab:  Solving for p, Initial residual = 0.108342, Final residual = 0.000771148, No Iterations 16
time step continuity errors : sum local = 0.0144059, global = -0.000553959, cumulative = -0.751524
BiCGStab:  Solving for p, Initial residual = 0.074636, Final residual = 0.000636529, No Iterations 16
time step continuity errors : sum local = 0.0139177, global = -0.00131755, cumulative = -0.752842
BiCGStab:  Solving for i, Initial residual = 0.000999871, Final residual = 4.1693e-12, No Iterations 2
BiCGStab:  Solving for epsilon, Initial residual = 0.0103938, Final residual = 5.38719e-09, No Iterations 2
BiCGStab:  Solving for k, Initial residual = 0.0220962, Final residual = 7.43745e-12, No Iterations 4
ExecutionTime = 8 s  ClockTime = 8 s

Flux divergence min = 1.93623e-05 max = 3216.59 average: 5.51553
Mach number min = 0.157481 max = 0.711501
Field Urel magnitude min = 0 max = 186.576
Field p min = 97355.3 max = 139785
Field rho min = 1.11501 max = 1.60109
Field T min = 288.393 max = 312.129
Time = 41

BiCGStab:  Solving for Urelx, Initial residual = 0.0484737, Final residual = 3.38521e-09, No Iterations 3
BiCGStab:  Solving for Urely, Initial residual = 0.0238472, Final residual = 2.17184e-10, No Iterations 3
BiCGStab:  Solving for Urelz, Initial residual = 0.029103, Final residual = 2.2079e-09, No Iterations 3
BiCGStab:  Solving for p, Initial residual = 0.106388, Final residual = 0.0010472, No Iterations 16
time step continuity errors : sum local = 0.0139121, global = -0.000737205, cumulative = -0.753579
BiCGStab:  Solving for p, Initial residual = 0.0733988, Final residual = 0.00038979, No Iterations 17
time step continuity errors : sum local = 0.0134177, global = -0.00147486, cumulative = -0.755054
BiCGStab:  Solving for i, Initial residual = 0.000989793, Final residual = 4.08586e-12, No Iterations 2
BiCGStab:  Solving for epsilon, Initial residual = 0.0101008, Final residual = 5.18699e-09, No Iterations 2
BiCGStab:  Solving for k, Initial residual = 0.0216707, Final residual = 1.65007e-09, No Iterations 3
ExecutionTime = 8.18 s  ClockTime = 9 s

Flux divergence min = 3.75152e-05 max = 3568.06 average: 4.48854
Mach number min = 0.16136 max = 0.717909
Field Urel magnitude min = 0 max = 187.01
Field p min = 97875.4 max = 139740
Field rho min = 1.14661 max = 1.60035
Field T min = 288.322 max = 312.068
Time = 42

BiCGStab:  Solving for Urelx, Initial residual = 0.0485696, Final residual = 2.37449e-09, No Iterations 3
BiCGStab:  Solving for Urely, Initial residual = 0.0209821, Final residual = 2.18309e-10, No Iterations 3
BiCGStab:  Solving for Urelz, Initial residual = 0.0279393, Final residual = 2.15632e-09, No Iterations 3
BiCGStab:  Solving for p, Initial residual = 0.104503, Final residual = 0.000928548, No Iterations 14
time step continuity errors : sum local = 0.0136499, global = -0.000788935, cumulative = -0.755843
BiCGStab:  Solving for p, Initial residual = 0.0722063, Final residual = 0.000459396, No Iterations 16
time step continuity errors : sum local = 0.0131179, global = -0.0013603, cumulative = -0.757203
BiCGStab:  Solving for i, Initial residual = 0.000980255, Final residual = 4.0106e-12, No Iterations 2
BiCGStab:  Solving for epsilon, Initial residual = 0.0097509, Final residual = 4.88542e-09, No Iterations 2
BiCGStab:  Solving for k, Initial residual = 0.0212445, Final residual = 8.33526e-10, No Iterations 3
ExecutionTime = 8.35 s  ClockTime = 9 s

Flux divergence min = 2.00437e-05 max = 2289.71 average: 4.06292
Mach number min = 0.163995 max = 0.722631
Field Urel magnitude min = 0 max = 187.419
Field p min = 98156.8 max = 140035
Field rho min = 1.15664 max = 1.59958
Field T min = 288.255 max = 311.984
Time = 43

BiCGStab:  Solving for Urelx, Initial residual = 0.0481876, Final residual = 3.8238e-09, No Iterations 3
BiCGStab:  Solving for Urely, Initial residual = 0.0197276, Final residual = 2.50155e-10, No Iterations 3
BiCGStab:  Solving for Urelz, Initial residual = 0.0268408, Final residual = 2.08673e-09, No Iterations 3
BiCGStab:  Solving for p, Initial residual = 0.103037, Final residual = 0.00057131, No Iterations 16
time step continuity errors : sum local = 0.0131735, global = -0.000519004, cumulative = -0.757722
BiCGStab:  Solving for p, Initial residual = 0.0713445, Final residual = 0.000556225, No Iterations 16
time step continuity errors : sum local = 0.0126517, global = -0.00103354, cumulative = -0.758756
BiCGStab:  Solving for i, Initial residual = 0.000973654, Final residual = 4.03404e-12, No Iterations 2
BiCGStab:  Solving for epsilon, Initial residual = 0.00942935, Final residual = 4.73982e-09, No Iterations 2
BiCGStab:  Solving for k, Initial residual = 0.0209124, Final residual = 5.6736e-10, No Iterations 3
ExecutionTime = 8.52 s  ClockTime = 9 s

Flux divergence min = 1.09391e-05 max = 817.686 average: 3.76388
Mach number min = 0.168879 max = 0.723988
Field Urel magnitude min = 0 max = 187.879
Field p min = 98683.2 max = 140538
Field rho min = 1.1629 max = 1.59879
Field T min = 288.179 max = 311.854
Time = 44

BiCGStab:  Solving for Urelx, Initial residual = 0.0474695, Final residual = 1.84198e-11, No Iterations 4
BiCGStab:  Solving for Urely, Initial residual = 0.0205183, Final residual = 2.92451e-10, No Iterations 3
BiCGStab:  Solving for Urelz, Initial residual = 0.0258605, Final residual = 1.90616e-09, No Iterations 3
BiCGStab:  Solving for p, Initial residual = 0.101085, Final residual = 0.00071356, No Iterations 16
time step continuity errors : sum local = 0.0125378, global = -4.84388e-05, cumulative = -0.758804
BiCGStab:  Solving for p, Initial residual = 0.0702119, Final residual = 0.000652509, No Iterations 16
time step continuity errors : sum local = 0.0120347, global = -0.000419465, cumulative = -0.759224
BiCGStab:  Solving for i, Initial residual = 0.000970984, Final residual = 3.9979e-12, No Iterations 2
BiCGStab:  Solving for epsilon, Initial residual = 0.00922805, Final residual = 4.8269e-09, No Iterations 2
BiCGStab:  Solving for k, Initial residual = 0.0206846, Final residual = 4.75273e-10, No Iterations 3
ExecutionTime = 8.7 s  ClockTime = 9 s

Flux divergence min = 3.84031e-06 max = 1438.97 average: 3.70779
Mach number min = 0.175575 max = 0.72139
Field Urel magnitude min = 0 max = 188.404
Field p min = 99308.9 max = 141077
Field rho min = 1.16398 max = 1.59799
Field T min = 288.09 max = 311.808
Time = 45

BiCGStab:  Solving for Urelx, Initial residual = 0.0462741, Final residual = 2.02302e-11, No Iterations 4
BiCGStab:  Solving for Urely, Initial residual = 0.0216836, Final residual = 3.02674e-10, No Iterations 3
BiCGStab:  Solving for Urelz, Initial residual = 0.0252175, Final residual = 1.76007e-09, No Iterations 3
BiCGStab:  Solving for p, Initial residual = 0.0997712, Final residual = 0.000932382, No Iterations 14
time step continuity errors : sum local = 0.012013, global = 0.000649685, cumulative = -0.758574
BiCGStab:  Solving for p, Initial residual = 0.0692854, Final residual = 0.000520023, No Iterations 16
time step continuity errors : sum local = 0.0115177, global = 0.000313155, cumulative = -0.758261
BiCGStab:  Solving for i, Initial residual = 0.000949261, Final residual = 3.87206e-12, No Iterations 2
BiCGStab:  Solving for epsilon, Initial residual = 0.00911769, Final residual = 5.05535e-09, No Iterations 2
BiCGStab:  Solving for k, Initial residual = 0.0205205, Final residual = 4.63491e-10, No Iterations 3
ExecutionTime = 8.87 s  ClockTime = 9 s

Flux divergence min = 1.09104e-05 max = 2095.79 average: 3.07692
Mach number min = 0.180757 max = 0.715907
Field Urel magnitude min = 0 max = 188.971
Field p min = 99866 max = 141480
Field rho min = 1.16268 max = 1.59812
Field T min = 287.994 max = 311.911
Time = 46

BiCGStab:  Solving for Urelx, Initial residual = 0.0446666, Final residual = 2.25275e-11, No Iterations 4
BiCGStab:  Solving for Urely, Initial residual = 0.0219988, Final residual = 2.52139e-10, No Iterations 3
BiCGStab:  Solving for Urelz, Initial residual = 0.0251025, Final residual = 1.71835e-09, No Iterations 3
BiCGStab:  Solving for p, Initial residual = 0.098197, Final residual = 0.000931817, No Iterations 14
time step continuity errors : sum local = 0.0115797, global = 0.00125037, cumulative = -0.75701
BiCGStab:  Solving for p, Initial residual = 0.0682108, Final residual = 0.000590474, No Iterations 14
time step continuity errors : sum local = 0.0111472, global = 0.00116062, cumulative = -0.75585
BiCGStab:  Solving for i, Initial residual = 0.000936262, Final residual = 3.72661e-12, No Iterations 2
BiCGStab:  Solving for epsilon, Initial residual = 0.00904554, Final residual = 5.25743e-09, No Iterations 2
BiCGStab:  Solving for k, Initial residual = 0.0203367, Final residual = 4.76789e-10, No Iterations 3
ExecutionTime = 9.04 s  ClockTime = 9 s

Flux divergence min = 3.02669e-07 max = 1641.61 average: 3.19195
Mach number min = 0.183454 max = 0.710131
Field Urel magnitude min = 0 max = 189.551
Field p min = 99232.4 max = 141622
Field rho min = 1.16167 max = 1.60233
Field T min = 287.894 max = 312.053
Time = 47

BiCGStab:  Solving for Urelx, Initial residual = 0.0429343, Final residual = 1.87926e-11, No Iterations 4
BiCGStab:  Solving for Urely, Initial residual = 0.0216623, Final residual = 1.93587e-10, No Iterations 3
BiCGStab:  Solving for Urelz, Initial residual = 0.0253781, Final residual = 1.72489e-09, No Iterations 3
BiCGStab:  Solving for p, Initial residual = 0.0956979, Final residual = 0.000724511, No Iterations 23
time step continuity errors : sum local = 0.0112618, global = 0.00266284, cumulative = -0.753187
BiCGStab:  Solving for p, Initial residual = 0.066416, Final residual = 0.000623302, No Iterations 19
time step continuity errors : sum local = 0.0108224, global = 0.00248176, cumulative = -0.750705
BiCGStab:  Solving for i, Initial residual = 0.000914393, Final residual = 3.6108e-12, No Iterations 2
BiCGStab:  Solving for epsilon, Initial residual = 0.00897111, Final residual = 5.35113e-09, No Iterations 2
BiCGStab:  Solving for k, Initial residual = 0.020101, Final residual = 4.81405e-10, No Iterations 3
ExecutionTime = 9.23 s  ClockTime = 10 s

Flux divergence min = 9.50701e-06 max = 997.155 average: 3.38796
Mach number min = 0.183261 max = 0.706026
Field Urel magnitude min = 0 max = 190.004
Field p min = 98570.5 max = 141394
Field rho min = 1.16061 max = 1.60305
Field T min = 287.817 max = 312.102
Time = 48

BiCGStab:  Solving for Urelx, Initial residual = 0.0413285, Final residual = 7.33492e-09, No Iterations 3
BiCGStab:  Solving for Urely, Initial residual = 0.0209702, Final residual = 1.63523e-10, No Iterations 3
BiCGStab:  Solving for Urelz, Initial residual = 0.0259188, Final residual = 1.67198e-09, No Iterations 3
BiCGStab:  Solving for p, Initial residual = 0.0928635, Final residual = 0.000789925, No Iterations 23
time step continuity errors : sum local = 0.0113802, global = 0.00379268, cumulative = -0.746913
BiCGStab:  Solving for p, Initial residual = 0.0643036, Final residual = 0.000613626, No Iterations 26
time step continuity errors : sum local = 0.0111534, global = 0.00405929, cumulative = -0.742853
BiCGStab:  Solving for i, Initial residual = 0.000927007, Final residual = 3.57376e-12, No Iterations 2
BiCGStab:  Solving for epsilon, Initial residual = 0.00887643, Final residual = 5.36995e-09, No Iterations 2
BiCGStab:  Solving for k, Initial residual = 0.0197949, Final residual = 4.93655e-10, No Iterations 3
ExecutionTime = 9.43 s  ClockTime = 10 s

Flux divergence min = 4.05975e-05 max = 1094.9 average: 3.64638
Mach number min = 0.18055 max = 0.705002
Field Urel magnitude min = 0 max = 190.228
Field p min = 98170.6 max = 140833
Field rho min = 1.15057 max = 1.59971
Field T min = 287.783 max = 312.063
Time = 49

BiCGStab:  Solving for Urelx, Initial residual = 0.0401436, Final residual = 1.53215e-09, No Iterations 3
BiCGStab:  Solving for Urely, Initial residual = 0.0196694, Final residual = 1.55998e-10, No Iterations 3
BiCGStab:  Solving for Urelz, Initial residual = 0.0261782, Final residual = 1.53916e-09, No Iterations 3
BiCGStab:  Solving for p, Initial residual = 0.0899046, Final residual = 0.000538928, No Iterations 24
time step continuity errors : sum local = 0.0117551, global = 0.00464797, cumulative = -0.738205
BiCGStab:  Solving for p, Initial residual = 0.062226, Final residual = 0.000317493, No Iterations 28
time step continuity errors : sum local = 0.0116851, global = 0.00518474, cumulative = -0.733021
BiCGStab:  Solving for i, Initial residual = 0.000941286, Final residual = 3.48014e-12, No Iterations 2
BiCGStab:  Solving for epsilon, Initial residual = 0.00875189, Final residual = 5.32744e-09, No Iterations 2
BiCGStab:  Solving for k, Initial residual = 0.0194319, Final residual = 5.43892e-10, No Iterations 3
ExecutionTime = 9.63 s  ClockTime = 10 s

Flux divergence min = 0.000156189 max = 998.84 average: 2.75518
Mach number min = 0.176515 max = 0.707974
Field Urel magnitude min = 0 max = 190.197
Field p min = 97906.4 max = 140103
Field rho min = 1.15164 max = 1.59455
Field T min = 287.797 max = 312
Time = 50

BiCGStab:  Solving for Urelx, Initial residual = 0.0394446, Final residual = 2.01599e-09, No Iterations 3
BiCGStab:  Solving for Urely, Initial residual = 0.0180148, Final residual = 1.53884e-10, No Iterations 3
BiCGStab:  Solving for Urelz, Initial residual = 0.0259434, Final residual = 1.36425e-09, No Iterations 3
BiCGStab:  Solving for p, Initial residual = 0.0875681, Final residual = 0.000562105, No Iterations 24
time step continuity errors : sum local = 0.0115746, global = 0.00437242, cumulative = -0.728648
BiCGStab:  Solving for p, Initial residual = 0.0605847, Final residual = 0.000294307, No Iterations 31
time step continuity errors : sum local = 0.0112652, global = 0.00464041, cumulative = -0.724008
BiCGStab:  Solving for i, Initial residual = 0.000940347, Final residual = 3.42172e-12, No Iterations 2
BiCGStab:  Solving for epsilon, Initial residual = 0.0085418, Final residual = 5.25824e-09, No Iterations 2
BiCGStab:  Solving for k, Initial residual = 0.019086, Final residual = 5.5484e-10, No Iterations 3
ExecutionTime = 9.83 s  ClockTime = 10 s

Flux divergence min = 9.48014e-06 max = 853.515 average: 2.61047
Mach number min = 0.173494 max = 0.714192
Field Urel magnitude min = 0 max = 190.081
Field p min = 97944.9 max = 139463
Field rho min = 1.15569 max = 1.59398
Field T min = 287.827 max = 311.941
Time = 51

BiCGStab:  Solving for Urelx, Initial residual = 0.0391459, Final residual = 1.2668e-09, No Iterations 3
BiCGStab:  Solving for Urely, Initial residual = 0.0167126, Final residual = 1.44326e-10, No Iterations 3
BiCGStab:  Solving for Urelz, Initial residual = 0.0253197, Final residual = 1.19321e-09, No Iterations 3
BiCGStab:  Solving for p, Initial residual = 0.0856643, Final residual = 0.000833416, No Iterations 19
time step continuity errors : sum local = 0.0105852, global = 0.00220756, cumulative = -0.7218
BiCGStab:  Solving for p, Initial residual = 0.0594515, Final residual = 0.000542251, No Iterations 17
time step continuity errors : sum local = 0.0101034, global = 0.00214737, cumulative = -0.719653
BiCGStab:  Solving for i, Initial residual = 0.000932462, Final residual = 3.36103e-12, No Iterations 2
BiCGStab:  Solving for epsilon, Initial residual = 0.00828451, Final residual = 5.18301e-09, No Iterations 2
BiCGStab:  Solving for k, Initial residual = 0.0187936, Final residual = 4.02334e-10, No Iterations 3
ExecutionTime = 10.01 s  ClockTime = 10 s

Flux divergence min = 9.17059e-05 max = 693.445 average: 2.97802
Mach number min = 0.171962 max = 0.721465
Field Urel magnitude min = 0 max = 190.115
Field p min = 98321 max = 139162
Field rho min = 1.15529 max = 1.5934
Field T min = 287.83 max = 311.883
Time = 52

BiCGStab:  Solving for Urelx, Initial residual = 0.0389861, Final residual = 3.42288e-09, No Iterations 3
BiCGStab:  Solving for Urely, Initial residual = 0.0163579, Final residual = 1.2543e-10, No Iterations 3
BiCGStab:  Solving for Urelz, Initial residual = 0.024334, Final residual = 1.03584e-09, No Iterations 3
BiCGStab:  Solving for p, Initial residual = 0.0839343, Final residual = 0.000694111, No Iterations 17
time step continuity errors : sum local = 0.00982204, global = 0.00102474, cumulative = -0.718628
BiCGStab:  Solving for p, Initial residual = 0.0583824, Final residual = 0.000518102, No Iterations 19
time step continuity errors : sum local = 0.00934293, global = 0.000842498, cumulative = -0.717786
BiCGStab:  Solving for i, Initial residual = 0.000948576, Final residual = 3.36906e-12, No Iterations 2
BiCGStab:  Solving for epsilon, Initial residual = 0.00806583, Final residual = 5.11336e-09, No Iterations 2
BiCGStab:  Solving for k, Initial residual = 0.0185293, Final residual = 3.65123e-10, No Iterations 3
ExecutionTime = 10.19 s  ClockTime = 11 s

Flux divergence min = 0.000174491 max = 722.517 average: 2.77066
Mach number min = 0.171622 max = 0.727578
Field Urel magnitude min = 0 max = 190.228
Field p min = 98501.6 max = 139261
Field rho min = 1.15932 max = 1.59276
Field T min = 287.818 max = 311.853
Time = 53

BiCGStab:  Solving for Urelx, Initial residual = 0.0386989, Final residual = 5.62477e-09, No Iterations 3
BiCGStab:  Solving for Urely, Initial residual = 0.0164186, Final residual = 1.05972e-10, No Iterations 3
BiCGStab:  Solving for Urelz, Initial residual = 0.0232056, Final residual = 8.68539e-10, No Iterations 3
BiCGStab:  Solving for p, Initial residual = 0.0823228, Final residual = 0.000760622, No Iterations 17
time step continuity errors : sum local = 0.00921751, global = 0.000221186, cumulative = -0.717564
BiCGStab:  Solving for p, Initial residual = 0.057476, Final residual = 0.000521423, No Iterations 19
time step continuity errors : sum local = 0.00882808, global = -0.00015815, cumulative = -0.717723
BiCGStab:  Solving for i, Initial residual = 0.000953785, Final residual = 3.36598e-12, No Iterations 2
BiCGStab:  Solving for epsilon, Initial residual = 0.00790412, Final residual = 4.93433e-09, No Iterations 2
BiCGStab:  Solving for k, Initial residual = 0.0181929, Final residual = 3.47676e-10, No Iterations 3
ExecutionTime = 10.37 s  ClockTime = 11 s

Flux divergence min = 4.64169e-05 max = 639.767 average: 2.84971
Mach number min = 0.17319 max = 0.731202
Field Urel magnitude min = 0 max = 190.447
Field p min = 99055.3 max = 139681
Field rho min = 1.16333 max = 1.59206
Field T min = 287.787 max = 311.864
Time = 54

BiCGStab:  Solving for Urelx, Initial residual = 0.0379488, Final residual = 4.20657e-09, No Iterations 3
BiCGStab:  Solving for Urely, Initial residual = 0.0164761, Final residual = 8.96029e-11, No Iterations 3
BiCGStab:  Solving for Urelz, Initial residual = 0.0223446, Final residual = 6.86998e-10, No Iterations 3
BiCGStab:  Solving for p, Initial residual = 0.0804194, Final residual = 0.000742006, No Iterations 16
time step continuity errors : sum local = 0.008764, global = -0.000290347, cumulative = -0.718013
BiCGStab:  Solving for p, Initial residual = 0.0564231, Final residual = 0.000495886, No Iterations 19
time step continuity errors : sum local = 0.00853944, global = -0.000811579, cumulative = -0.718824
BiCGStab:  Solving for i, Initial residual = 0.00094964, Final residual = 3.28509e-12, No Iterations 2
BiCGStab:  Solving for epsilon, Initial residual = 0.00762925, Final residual = 4.61309e-09, No Iterations 2
BiCGStab:  Solving for k, Initial residual = 0.0177665, Final residual = 2.53831e-10, No Iterations 3
ExecutionTime = 10.55 s  ClockTime = 11 s

Flux divergence min = 9.73572e-06 max = 458.093 average: 2.68036
Mach number min = 0.17603 max = 0.731733
Field Urel magnitude min = 0 max = 190.787
Field p min = 99347.4 max = 140254
Field rho min = 1.16083 max = 1.5913
Field T min = 287.732 max = 311.885
Time = 55

BiCGStab:  Solving for Urelx, Initial residual = 0.036866, Final residual = 2.65962e-09, No Iterations 3
BiCGStab:  Solving for Urely, Initial residual = 0.0164837, Final residual = 7.70278e-11, No Iterations 3
BiCGStab:  Solving for Urelz, Initial residual = 0.0220457, Final residual = 4.96208e-10, No Iterations 3
BiCGStab:  Solving for p, Initial residual = 0.0782856, Final residual = 0.000593241, No Iterations 16
time step continuity errors : sum local = 0.008376, global = -0.000547921, cumulative = -0.719372
BiCGStab:  Solving for p, Initial residual = 0.0550671, Final residual = 0.00045771, No Iterations 17
time step continuity errors : sum local = 0.0082139, global = -0.000847672, cumulative = -0.72022
BiCGStab:  Solving for i, Initial residual = 0.000936295, Final residual = 3.21615e-12, No Iterations 2
BiCGStab:  Solving for epsilon, Initial residual = 0.00729108, Final residual = 4.16145e-09, No Iterations 2
BiCGStab:  Solving for k, Initial residual = 0.017309, Final residual = 1.78675e-10, No Iterations 3
ExecutionTime = 10.72 s  ClockTime = 11 s

Flux divergence min = 2.24734e-05 max = 352.905 average: 2.31623
Mach number min = 0.179618 max = 0.72979
Field Urel magnitude min = 0 max = 191.187
Field p min = 99007.2 max = 140775
Field rho min = 1.15664 max = 1.59154
Field T min = 287.665 max = 311.88
Time = 56

BiCGStab:  Solving for Urelx, Initial residual = 0.0355693, Final residual = 1.43852e-09, No Iterations 3
BiCGStab:  Solving for Urely, Initial residual = 0.0162391, Final residual = 6.82638e-11, No Iterations 3
BiCGStab:  Solving for Urelz, Initial residual = 0.0223191, Final residual = 2.8948e-10, No Iterations 3
BiCGStab:  Solving for p, Initial residual = 0.076548, Final residual = 0.0004966, No Iterations 16
time step continuity errors : sum local = 0.00795676, global = -0.000390688, cumulative = -0.720611
BiCGStab:  Solving for p, Initial residual = 0.0539732, Final residual = 0.000322917, No Iterations 16
time step continuity errors : sum local = 0.00778168, global = -0.00049883, cumulative = -0.72111
BiCGStab:  Solving for i, Initial residual = 0.000910561, Final residual = 3.09296e-12, No Iterations 2
BiCGStab:  Solving for epsilon, Initial residual = 0.00705752, Final residual = 3.66887e-09, No Iterations 2
BiCGStab:  Solving for k, Initial residual = 0.0169251, Final residual = 1.52026e-10, No Iterations 3
ExecutionTime = 10.9 s  ClockTime = 11 s

Flux divergence min = 5.22144e-06 max = 515.357 average: 1.60125
Mach number min = 0.182588 max = 0.727083
Field Urel magnitude min = 0 max = 191.539
Field p min = 98842.3 max = 141077
Field rho min = 1.15727 max = 1.59593
Field T min = 287.608 max = 311.847
Time = 57

BiCGStab:  Solving for Urelx, Initial residual = 0.034266, Final residual = 9.37192e-10, No Iterations 3
BiCGStab:  Solving for Urely, Initial residual = 0.0157915, Final residual = 6.27097e-11, No Iterations 3
BiCGStab:  Solving for Urelz, Initial residual = 0.0226171, Final residual = 1.4058e-10, No Iterations 3
BiCGStab:  Solving for p, Initial residual = 0.074803, Final residual = 0.000708482, No Iterations 16
time step continuity errors : sum local = 0.00750216, global = 8.23186e-05, cumulative = -0.721027
BiCGStab:  Solving for p, Initial residual = 0.0527388, Final residual = 0.000453166, No Iterations 16
time step continuity errors : sum local = 0.00726925, global = 0.000248561, cumulative = -0.720779
BiCGStab:  Solving for i, Initial residual = 0.000900509, Final residual = 3.04099e-12, No Iterations 2
BiCGStab:  Solving for epsilon, Initial residual = 0.006971, Final residual = 3.32959e-09, No Iterations 2
BiCGStab:  Solving for k, Initial residual = 0.0166462, Final residual = 1.69403e-10, No Iterations 3
ExecutionTime = 11.07 s  ClockTime = 11 s

Flux divergence min = 8.8449e-05 max = 682.245 average: 1.97157
Mach number min = 0.183999 max = 0.725629
Field Urel magnitude min = 0 max = 191.733
Field p min = 98881.4 max = 141068
Field rho min = 1.16235 max = 1.59823
Field T min = 287.58 max = 311.79
Time = 58

BiCGStab:  Solving for Urelx, Initial residual = 0.0331762, Final residual = 6.7159e-10, No Iterations 3
BiCGStab:  Solving for Urely, Initial residual = 0.0152463, Final residual = 5.91717e-11, No Iterations 3
BiCGStab:  Solving for Urelz, Initial residual = 0.0226141, Final residual = 1.26478e-10, No Iterations 3
BiCGStab:  Solving for p, Initial residual = 0.0726464, Final residual = 0.000445592, No Iterations 19
time step continuity errors : sum local = 0.00727725, global = 0.00186668, cumulative = -0.718912
BiCGStab:  Solving for p, Initial residual = 0.0511304, Final residual = 0.000405799, No Iterations 28
time step continuity errors : sum local = 0.00723156, global = 0.00249831, cumulative = -0.716414
BiCGStab:  Solving for i, Initial residual = 0.000923795, Final residual = 3.03153e-12, No Iterations 2
BiCGStab:  Solving for epsilon, Initial residual = 0.00685999, Final residual = 3.08125e-09, No Iterations 2
BiCGStab:  Solving for k, Initial residual = 0.016411, Final residual = 1.55747e-10, No Iterations 3
ExecutionTime = 11.26 s  ClockTime = 12 s

Flux divergence min = 3.78917e-06 max = 595.468 average: 1.97505
Mach number min = 0.183505 max = 0.726445
Field Urel magnitude min = 0 max = 191.551
Field p min = 98908.7 max = 140764
Field rho min = 1.16753 max = 1.59733
Field T min = 287.623 max = 311.715
Time = 59

BiCGStab:  Solving for Urelx, Initial residual = 0.032506, Final residual = 6.40618e-10, No Iterations 3
BiCGStab:  Solving for Urely, Initial residual = 0.0145846, Final residual = 5.62737e-11, No Iterations 3
BiCGStab:  Solving for Urelz, Initial residual = 0.0223052, Final residual = 1.21263e-10, No Iterations 3
BiCGStab:  Solving for p, Initial residual = 0.0702696, Final residual = 9.01065e-05, No Iterations 28
time step continuity errors : sum local = 0.00772193, global = 0.00366828, cumulative = -0.712745
[...]
time step continuity errors : sum local = 0.00185556, global = 0.000178932, cumulative = -0.244332
BiCGStab:  Solving for p, Initial residual = 0.0404707, Final residual = 0.000373379, No Iterations 12
time step continuity errors : sum local = 0.00131579, global = -9.1355e-05, cumulative = -0.244423
BiCGStab:  Solving for i, Initial residual = 0.000134057, Final residual = 2.79391e-09, No Iterations 1
BiCGStab:  Solving for epsilon, Initial residual = 1.43676e-05, Final residual = 6.59057e-09, No Iterations 1
BiCGStab:  Solving for k, Initial residual = 3.12763e-05, Final residual = 9.43045e-10, No Iterations 2
ExecutionTime = 331.8 s  ClockTime = 332 s

Flux divergence min = 4.12566e-07 max = 93.1703 average: 1.11211
Mach number min = 0.236762 max = 1.05953
Field Urel magnitude min = 0 max = 280.321
Field p min = 56882.9 max = 140164
Field rho min = 0.747068 max = 1.62394
Field T min = 261.338 max = 325.866
Time = 1987

BiCGStab:  Solving for Urelx, Initial residual = 9.52127e-05, Final residual = 3.90126e-09, No Iterations 2
BiCGStab:  Solving for Urely, Initial residual = 0.00845551, Final residual = 2.43755e-10, No Iterations 3
BiCGStab:  Solving for Urelz, Initial residual = 0.0131952, Final residual = 3.67098e-10, No Iterations 3
BiCGStab:  Solving for p, Initial residual = 0.0390647, Final residual = 0.000362552, No Iterations 11
time step continuity errors : sum local = 0.00185837, global = 0.000166673, cumulative = -0.244257
BiCGStab:  Solving for p, Initial residual = 0.0404646, Final residual = 0.000340888, No Iterations 12
time step continuity errors : sum local = 0.00131603, global = -9.46183e-05, cumulative = -0.244351
BiCGStab:  Solving for i, Initial residual = 0.000133004, Final residual = 2.7619e-09, No Iterations 1
BiCGStab:  Solving for epsilon, Initial residual = 1.44081e-05, Final residual = 6.50026e-09, No Iterations 1
BiCGStab:  Solving for k, Initial residual = 3.14451e-05, Final residual = 9.66857e-10, No Iterations 2
ExecutionTime = 331.96 s  ClockTime = 332 s

Flux divergence min = 7.31723e-07 max = 88.5743 average: 1.03679
Mach number min = 0.236764 max = 1.05954
Field Urel magnitude min = 0 max = 280.325
Field p min = 56881.5 max = 140164
Field rho min = 0.747053 max = 1.62394
Field T min = 261.337 max = 325.867
Time = 1988

BiCGStab:  Solving for Urelx, Initial residual = 9.4666e-05, Final residual = 3.91225e-09, No Iterations 2
BiCGStab:  Solving for Urely, Initial residual = 0.00845559, Final residual = 2.43823e-10, No Iterations 3
BiCGStab:  Solving for Urelz, Initial residual = 0.0131953, Final residual = 3.67155e-10, No Iterations 3
BiCGStab:  Solving for p, Initial residual = 0.0390524, Final residual = 0.000389304, No Iterations 10
time step continuity errors : sum local = 0.00188303, global = 0.000102138, cumulative = -0.244249
BiCGStab:  Solving for p, Initial residual = 0.0405055, Final residual = 0.000374601, No Iterations 12
time step continuity errors : sum local = 0.00131014, global = -0.000104577, cumulative = -0.244354
BiCGStab:  Solving for i, Initial residual = 0.000133422, Final residual = 2.78059e-09, No Iterations 1
BiCGStab:  Solving for epsilon, Initial residual = 1.43387e-05, Final residual = 6.37591e-09, No Iterations 1
BiCGStab:  Solving for k, Initial residual = 3.11328e-05, Final residual = 7.50916e-10, No Iterations 2
ExecutionTime = 332.12 s  ClockTime = 333 s

Flux divergence min = 1.98474e-06 max = 93.3529 average: 1.11758
Mach number min = 0.236767 max = 1.05955
Field Urel magnitude min = 0 max = 280.329
Field p min = 56880.2 max = 140164
Field rho min = 0.747039 max = 1.62394
Field T min = 261.336 max = 325.867
Time = 1989

BiCGStab:  Solving for Urelx, Initial residual = 9.3394e-05, Final residual = 3.67139e-09, No Iterations 2
BiCGStab:  Solving for Urely, Initial residual = 0.00845795, Final residual = 2.43924e-10, No Iterations 3
BiCGStab:  Solving for Urelz, Initial residual = 0.0131957, Final residual = 3.67245e-10, No Iterations 3
BiCGStab:  Solving for p, Initial residual = 0.0390571, Final residual = 0.000374836, No Iterations 10
time step continuity errors : sum local = 0.00188888, global = 0.000111283, cumulative = -0.244243
BiCGStab:  Solving for p, Initial residual = 0.0405744, Final residual = 0.000383058, No Iterations 12
time step continuity errors : sum local = 0.00130648, global = -0.000102952, cumulative = -0.244346
BiCGStab:  Solving for i, Initial residual = 0.000133416, Final residual = 2.78278e-09, No Iterations 1
BiCGStab:  Solving for epsilon, Initial residual = 1.43226e-05, Final residual = 6.28201e-09, No Iterations 1
BiCGStab:  Solving for k, Initial residual = 3.11011e-05, Final residual = 7.7032e-10, No Iterations 2
ExecutionTime = 332.27 s  ClockTime = 333 s

Flux divergence min = 2.00935e-06 max = 93.55 average: 1.1388
Mach number min = 0.23677 max = 1.05957
Field Urel magnitude min = 0 max = 280.333
Field p min = 56878.8 max = 140164
Field rho min = 0.747025 max = 1.62394
Field T min = 261.335 max = 325.867
Time = 1990

BiCGStab:  Solving for Urelx, Initial residual = 9.2592e-05, Final residual = 3.58688e-09, No Iterations 2
BiCGStab:  Solving for Urely, Initial residual = 0.00845805, Final residual = 2.43995e-10, No Iterations 3
BiCGStab:  Solving for Urelz, Initial residual = 0.0131951, Final residual = 3.67326e-10, No Iterations 3
BiCGStab:  Solving for p, Initial residual = 0.0390885, Final residual = 0.000365083, No Iterations 11
time step continuity errors : sum local = 0.00187021, global = 0.000179647, cumulative = -0.244166
BiCGStab:  Solving for p, Initial residual = 0.0405968, Final residual = 0.000400699, No Iterations 12
time step continuity errors : sum local = 0.00130561, global = -9.58527e-05, cumulative = -0.244262
BiCGStab:  Solving for i, Initial residual = 0.000133467, Final residual = 2.78524e-09, No Iterations 1
BiCGStab:  Solving for epsilon, Initial residual = 1.43199e-05, Final residual = 6.31078e-09, No Iterations 1
BiCGStab:  Solving for k, Initial residual = 3.10859e-05, Final residual = 7.92867e-10, No Iterations 2
ExecutionTime = 332.42 s  ClockTime = 333 s

Flux divergence min = 1.32054e-06 max = 96.6491 average: 1.17967
Mach number min = 0.236771 max = 1.05958
Field Urel magnitude min = 0 max = 280.337
Field p min = 56877.4 max = 140164
Field rho min = 0.74701 max = 1.62394
Field T min = 261.334 max = 325.867
Time = 1991

BiCGStab:  Solving for Urelx, Initial residual = 9.28717e-05, Final residual = 3.71323e-09, No Iterations 2
BiCGStab:  Solving for Urely, Initial residual = 0.00845563, Final residual = 2.43977e-10, No Iterations 3
BiCGStab:  Solving for Urelz, Initial residual = 0.0131947, Final residual = 3.6732e-10, No Iterations 3
BiCGStab:  Solving for p, Initial residual = 0.0391179, Final residual = 0.000357091, No Iterations 11
time step continuity errors : sum local = 0.00186806, global = 0.000186254, cumulative = -0.244075
BiCGStab:  Solving for p, Initial residual = 0.0405881, Final residual = 0.00040534, No Iterations 12
time step continuity errors : sum local = 0.00130823, global = -8.974e-05, cumulative = -0.244165
BiCGStab:  Solving for i, Initial residual = 0.0001333, Final residual = 2.78185e-09, No Iterations 1
BiCGStab:  Solving for epsilon, Initial residual = 1.43457e-05, Final residual = 6.39423e-09, No Iterations 1
BiCGStab:  Solving for k, Initial residual = 3.11195e-05, Final residual = 8.89007e-10, No Iterations 2
ExecutionTime = 332.58 s  ClockTime = 333 s

Flux divergence min = 1.24737e-07 max = 98.6321 average: 1.19068
Mach number min = 0.236771 max = 1.05959
Field Urel magnitude min = 0 max = 280.341
Field p min = 56876 max = 140164
Field rho min = 0.746996 max = 1.62394
Field T min = 261.333 max = 325.868
Time = 1992

BiCGStab:  Solving for Urelx, Initial residual = 9.26789e-05, Final residual = 3.67014e-09, No Iterations 2
BiCGStab:  Solving for Urely, Initial residual = 0.00845531, Final residual = 2.43926e-10, No Iterations 3
BiCGStab:  Solving for Urelz, Initial residual = 0.0131944, Final residual = 3.67288e-10, No Iterations 3
BiCGStab:  Solving for p, Initial residual = 0.0391196, Final residual = 0.000337385, No Iterations 11
time step continuity errors : sum local = 0.00186449, global = 0.000182129, cumulative = -0.243983
BiCGStab:  Solving for p, Initial residual = 0.0405594, Final residual = 0.000396869, No Iterations 12
time step continuity errors : sum local = 0.00131172, global = -8.95417e-05, cumulative = -0.244073
BiCGStab:  Solving for i, Initial residual = 0.000132668, Final residual = 2.76616e-09, No Iterations 1
BiCGStab:  Solving for epsilon, Initial residual = 1.43866e-05, Final residual = 6.4706e-09, No Iterations 1
BiCGStab:  Solving for k, Initial residual = 3.1209e-05, Final residual = 9.55767e-10, No Iterations 2
ExecutionTime = 332.74 s  ClockTime = 333 s

Flux divergence min = 2.05464e-07 max = 101.341 average: 1.17056
Mach number min = 0.236771 max = 1.0596
Field Urel magnitude min = 0 max = 280.345
Field p min = 56874.6 max = 140164
Field rho min = 0.746981 max = 1.62394
Field T min = 261.332 max = 325.868
Time = 1993

BiCGStab:  Solving for Urelx, Initial residual = 9.26282e-05, Final residual = 3.6332e-09, No Iterations 2
BiCGStab:  Solving for Urely, Initial residual = 0.00845628, Final residual = 2.43896e-10, No Iterations 3
BiCGStab:  Solving for Urelz, Initial residual = 0.0131947, Final residual = 3.67294e-10, No Iterations 3
BiCGStab:  Solving for p, Initial residual = 0.0391025, Final residual = 0.000382324, No Iterations 10
time step continuity errors : sum local = 0.00187756, global = 0.000131128, cumulative = -0.243941
BiCGStab:  Solving for p, Initial residual = 0.0405594, Final residual = 0.000359994, No Iterations 10
time step continuity errors : sum local = 0.00133905, global = -9.6034e-06, cumulative = -0.243951
BiCGStab:  Solving for i, Initial residual = 0.000126611, Final residual = 2.59419e-09, No Iterations 1
BiCGStab:  Solving for epsilon, Initial residual = 1.50475e-05, Final residual = 6.67945e-09, No Iterations 1
BiCGStab:  Solving for k, Initial residual = 3.41303e-05, Final residual = 8.57674e-10, No Iterations 2
ExecutionTime = 332.89 s  ClockTime = 333 s

Flux divergence min = 2.87287e-07 max = 121.606 average: 1.07765
Mach number min = 0.236773 max = 1.05961
Field Urel magnitude min = 0 max = 280.348
Field p min = 56873.3 max = 140164
Field rho min = 0.746967 max = 1.62394
Field T min = 261.331 max = 325.868
Time = 1994

BiCGStab:  Solving for Urelx, Initial residual = 0.000112365, Final residual = 5.37171e-09, No Iterations 2
BiCGStab:  Solving for Urely, Initial residual = 0.00846026, Final residual = 2.44104e-10, No Iterations 3
BiCGStab:  Solving for Urelz, Initial residual = 0.0131962, Final residual = 3.67888e-10, No Iterations 3
BiCGStab:  Solving for p, Initial residual = 0.0391282, Final residual = 0.000302252, No Iterations 12
time step continuity errors : sum local = 0.00185342, global = 0.000182815, cumulative = -0.243768
BiCGStab:  Solving for p, Initial residual = 0.0404567, Final residual = 0.000331947, No Iterations 12
time step continuity errors : sum local = 0.00132478, global = -8.15788e-05, cumulative = -0.24385
BiCGStab:  Solving for i, Initial residual = 0.00013037, Final residual = 2.8317e-09, No Iterations 1
BiCGStab:  Solving for epsilon, Initial residual = 1.45308e-05, Final residual = 6.77428e-09, No Iterations 1
BiCGStab:  Solving for k, Initial residual = 3.18049e-05, Final residual = 8.75225e-10, No Iterations 2
ExecutionTime = 333.05 s  ClockTime = 333 s

Flux divergence min = 3.19422e-09 max = 88.1655 average: 1.00466
Mach number min = 0.236774 max = 1.05962
Field Urel magnitude min = 0 max = 280.352
Field p min = 56871.9 max = 140164
Field rho min = 0.746952 max = 1.62394
Field T min = 261.33 max = 325.868
Time = 1995

BiCGStab:  Solving for Urelx, Initial residual = 9.96874e-05, Final residual = 4.33038e-09, No Iterations 2
BiCGStab:  Solving for Urely, Initial residual = 0.0084601, Final residual = 2.43856e-10, No Iterations 3
BiCGStab:  Solving for Urelz, Initial residual = 0.0131982, Final residual = 3.67427e-10, No Iterations 3
BiCGStab:  Solving for p, Initial residual = 0.0391343, Final residual = 0.000316329, No Iterations 12
time step continuity errors : sum local = 0.00185609, global = 0.000172549, cumulative = -0.243677
BiCGStab:  Solving for p, Initial residual = 0.0404689, Final residual = 0.00039977, No Iterations 10
time step continuity errors : sum local = 0.00133398, global = -4.50662e-05, cumulative = -0.243722
BiCGStab:  Solving for i, Initial residual = 0.000127442, Final residual = 2.62702e-09, No Iterations 1
BiCGStab:  Solving for epsilon, Initial residual = 1.48927e-05, Final residual = 6.46458e-09, No Iterations 1
BiCGStab:  Solving for k, Initial residual = 3.35722e-05, Final residual = 8.65672e-10, No Iterations 2
ExecutionTime = 333.21 s  ClockTime = 334 s

Flux divergence min = 1.67665e-07 max = 129.812 average: 1.18017
Mach number min = 0.236775 max = 1.05963
Field Urel magnitude min = 0 max = 280.356
Field p min = 56870.5 max = 140164
Field rho min = 0.746938 max = 1.62394
Field T min = 261.329 max = 325.868
Time = 1996

BiCGStab:  Solving for Urelx, Initial residual = 0.000115522, Final residual = 5.49315e-09, No Iterations 2
BiCGStab:  Solving for Urely, Initial residual = 0.00846114, Final residual = 2.44077e-10, No Iterations 3
BiCGStab:  Solving for Urelz, Initial residual = 0.0131999, Final residual = 3.67959e-10, No Iterations 3
BiCGStab:  Solving for p, Initial residual = 0.039219, Final residual = 0.000388555, No Iterations 10
time step continuity errors : sum local = 0.00188492, global = 8.07523e-05, cumulative = -0.243642
BiCGStab:  Solving for p, Initial residual = 0.0405174, Final residual = 0.000404087, No Iterations 11
time step continuity errors : sum local = 0.0013124, global = -0.000105841, cumulative = -0.243747
BiCGStab:  Solving for i, Initial residual = 0.000130894, Final residual = 2.80991e-09, No Iterations 1
BiCGStab:  Solving for epsilon, Initial residual = 1.44265e-05, Final residual = 6.42556e-09, No Iterations 1
BiCGStab:  Solving for k, Initial residual = 3.1701e-05, Final residual = 4.54601e-10, No Iterations 2
ExecutionTime = 333.36 s  ClockTime = 334 s

Flux divergence min = 3.67805e-08 max = 104.625 average: 1.19822
Mach number min = 0.236776 max = 1.05965
Field Urel magnitude min = 0 max = 280.36
Field p min = 56869.2 max = 140164
Field rho min = 0.746924 max = 1.62394
Field T min = 261.328 max = 325.869
Time = 1997

BiCGStab:  Solving for Urelx, Initial residual = 0.000100701, Final residual = 4.14689e-09, No Iterations 2
BiCGStab:  Solving for Urely, Initial residual = 0.00845905, Final residual = 2.44033e-10, No Iterations 3
BiCGStab:  Solving for Urelz, Initial residual = 0.0131956, Final residual = 3.67646e-10, No Iterations 3
BiCGStab:  Solving for p, Initial residual = 0.0391407, Final residual = 0.000370071, No Iterations 12
time step continuity errors : sum local = 0.00186152, global = 0.000172048, cumulative = -0.243575
BiCGStab:  Solving for p, Initial residual = 0.0405469, Final residual = 0.000367899, No Iterations 11
time step continuity errors : sum local = 0.00130772, global = -0.00010971, cumulative = -0.243685
BiCGStab:  Solving for i, Initial residual = 0.00012962, Final residual = 2.76154e-09, No Iterations 1
BiCGStab:  Solving for epsilon, Initial residual = 1.44818e-05, Final residual = 6.34633e-09, No Iterations 1
BiCGStab:  Solving for k, Initial residual = 3.1683e-05, Final residual = 3.63115e-10, No Iterations 2
ExecutionTime = 333.53 s  ClockTime = 334 s

Flux divergence min = 8.4412e-07 max = 94.203 average: 1.09764
Mach number min = 0.236776 max = 1.05966
Field Urel magnitude min = 0 max = 280.364
Field p min = 56867.8 max = 140164
Field rho min = 0.746909 max = 1.62394
Field T min = 261.326 max = 325.869
Time = 1998

BiCGStab:  Solving for Urelx, Initial residual = 9.6823e-05, Final residual = 4.01006e-09, No Iterations 2
BiCGStab:  Solving for Urely, Initial residual = 0.00845603, Final residual = 2.44106e-10, No Iterations 3
BiCGStab:  Solving for Urelz, Initial residual = 0.013195, Final residual = 3.67698e-10, No Iterations 3
BiCGStab:  Solving for p, Initial residual = 0.0391153, Final residual = 0.000354354, No Iterations 12
time step continuity errors : sum local = 0.00186424, global = 0.00017988, cumulative = -0.243505
BiCGStab:  Solving for p, Initial residual = 0.0405352, Final residual = 0.000378216, No Iterations 11
time step continuity errors : sum local = 0.00130676, global = -9.93322e-05, cumulative = -0.243605
BiCGStab:  Solving for i, Initial residual = 0.000129433, Final residual = 2.79633e-09, No Iterations 1
BiCGStab:  Solving for epsilon, Initial residual = 1.45285e-05, Final residual = 6.39658e-09, No Iterations 1
BiCGStab:  Solving for k, Initial residual = 3.1748e-05, Final residual = 3.52814e-10, No Iterations 2
ExecutionTime = 333.68 s  ClockTime = 334 s

Flux divergence min = 1.59241e-08 max = 90.371 average: 1.12186
Mach number min = 0.236775 max = 1.05967
Field Urel magnitude min = 0 max = 280.368
Field p min = 56866.4 max = 140164
Field rho min = 0.746895 max = 1.62394
Field T min = 261.325 max = 325.87
Time = 1999

BiCGStab:  Solving for Urelx, Initial residual = 9.644e-05, Final residual = 4.02054e-09, No Iterations 2
BiCGStab:  Solving for Urely, Initial residual = 0.00845391, Final residual = 2.44106e-10, No Iterations 3
BiCGStab:  Solving for Urelz, Initial residual = 0.0131943, Final residual = 3.67642e-10, No Iterations 3
BiCGStab:  Solving for p, Initial residual = 0.0391089, Final residual = 0.000380935, No Iterations 12
time step continuity errors : sum local = 0.00186243, global = 0.00019044, cumulative = -0.243414
BiCGStab:  Solving for p, Initial residual = 0.0405244, Final residual = 0.000355955, No Iterations 11
time step continuity errors : sum local = 0.00130775, global = -9.22388e-05, cumulative = -0.243506
BiCGStab:  Solving for i, Initial residual = 0.000128376, Final residual = 2.7645e-09, No Iterations 1
BiCGStab:  Solving for epsilon, Initial residual = 1.45914e-05, Final residual = 6.54802e-09, No Iterations 1
BiCGStab:  Solving for k, Initial residual = 3.1879e-05, Final residual = 4.27481e-10, No Iterations 2
ExecutionTime = 333.84 s  ClockTime = 334 s

Flux divergence min = 8.86866e-08 max = 93.9295 average: 1.06679
Mach number min = 0.236773 max = 1.05968
Field Urel magnitude min = 0 max = 280.372
Field p min = 56865 max = 140164
Field rho min = 0.74688 max = 1.62394
Field T min = 261.324 max = 325.871
Time = 2000

BiCGStab:  Solving for Urelx, Initial residual = 9.60104e-05, Final residual = 3.95058e-09, No Iterations 2
BiCGStab:  Solving for Urely, Initial residual = 0.00845273, Final residual = 2.44081e-10, No Iterations 3
BiCGStab:  Solving for Urelz, Initial residual = 0.0131939, Final residual = 3.67512e-10, No Iterations 3
BiCGStab:  Solving for p, Initial residual = 0.0391088, Final residual = 0.000122363, No Iterations 14
time step continuity errors : sum local = 0.00188108, global = 0.00010942, cumulative = -0.243397
BiCGStab:  Solving for p, Initial residual = 0.0405106, Final residual = 0.000364868, No Iterations 11
time step continuity errors : sum local = 0.00130755, global = -9.00461e-05, cumulative = -0.243487
BiCGStab:  Solving for i, Initial residual = 0.000128218, Final residual = 2.76617e-09, No Iterations 1
BiCGStab:  Solving for epsilon, Initial residual = 1.45957e-05, Final residual = 6.62633e-09, No Iterations 1
BiCGStab:  Solving for k, Initial residual = 3.18609e-05, Final residual = 4.64938e-10, No Iterations 2
ExecutionTime = 334.57 s  ClockTime = 335 s

Flux divergence min = 1.79482e-07 max = 89.9253 average: 1.09921
Writing divFlux field
Mach number min = 0.236771 max = 1.05969
Writing Mach number field
Field Urel magnitude min = 0 max = 280.375
Field p min = 56863.7 max = 140164
Field rho min = 0.746866 max = 1.62394
Field T min = 261.323 max = 325.872
End

