/*---------------------------------------------------------------------------*\
| =========                 |                                                 |
| \\      /  F ield         | foam-extend: Open Source CFD                    |
|  \\    /   O peration     | Version:     4.0                                |
|   \\  /    A nd           | Web:         http://www.foam-extend.org         |
|    \\/     M anipulation  | For copyright notice see file Copyright         |
\*---------------------------------------------------------------------------*/
Build    : 4.0-268bb07d15d8
Exec     : steadyCompressibleSRFFoam
Date     : Apr 19 2019
Time     : 01:47:39
Host     : ubuntu-14
PID      : 24519
CtrlDict : "/home/stas/foam/foam-extend-4.0/tutorials/compressible/steadyCompressibleSRFFoam/simpleBlade/system/controlDict"
Case     : /home/stas/foam/foam-extend-4.0/tutorials/compressible/steadyCompressibleSRFFoam/simpleBlade
nProcs   : 1
SigFpe   : Enabling floating point exception trapping (FOAM_SIGFPE).

// * * * * * * * * * * * * * * * * * * * * * * * * * * * * * * * * * * * * * //
Create time

Create mesh for time = 0


PIMPLE: Operating solver in PISO mode

Reading thermophysical properties

Selecting thermodynamics package hPsiThermo<pureMixture<constTransport<specieThermo<hConstThermo<perfectGas>>>>>

Reading field Urel

Reading/calculating face flux field phi

Creating turbulence model

Selecting RAS turbulence model kEpsilon
kEpsilonCoeffs
{
    Cmu             0.09;
    C1              1.44;
    C2              1.92;
    C3              -0.33;
    sigmak          1;
    sigmaEps        1.3;
    Prt             1;
}

Creating SRF model

Selecting SRFModel rpm

Starting time loop

Creating divFlux for field phi
Creating MachNumber for field Uabs
Creating minMaxField for field Urel
Creating minMaxField for field p
Creating minMaxField for field rho
Creating minMaxField for field T
Time = 1

BiCGStab:  Solving for Urelx, Initial residual = 1, Final residual = 5.20858e-10, No Iterations 4
BiCGStab:  Solving for Urely, Initial residual = 1, Final residual = 4.87631e-09, No Iterations 4
BiCGStab:  Solving for Urelz, Initial residual = 1, Final residual = 7.59581e-10, No Iterations 4
BiCGStab:  Solving for p, Initial residual = 1, Final residual = 0.00877611, No Iterations 38
time step continuity errors : sum local = 0.250628, global = -0.250279, cumulative = -0.250279
BiCGStab:  Solving for p, Initial residual = 0.565028, Final residual = 0.00356698, No Iterations 43
time step continuity errors : sum local = 0.267692, global = -0.26744, cumulative = -0.517719
BiCGStab:  Solving for i, Initial residual = 0.0071315, Final residual = 6.10627e-11, No Iterations 2
BiCGStab:  Solving for epsilon, Initial residual = 0.0308246, Final residual = 3.28188e-09, No Iterations 3
BiCGStab:  Solving for k, Initial residual = 1, Final residual = 3.23391e-09, No Iterations 4
ExecutionTime = 0.45 s  ClockTime = 0 s

Flux divergence min = 0.000257477 max = 68257.1 average: 39.7507
Mach number min = 0.209137 max = 0.460811
Field Urel magnitude min = 0 max = 123.285
Field p min = 82602.4 max = 148803
Field rho min = 1.0614 max = 1.43654
Field T min = 285.049 max = 304.405
Time = 2

BiCGStab:  Solving for Urelx, Initial residual = 0.41375, Final residual = 4.91724e-10, No Iterations 4
BiCGStab:  Solving for Urely, Initial residual = 0.436549, Final residual = 8.32609e-11, No Iterations 4
BiCGStab:  Solving for Urelz, Initial residual = 0.388706, Final residual = 3.64795e-09, No Iterations 3
BiCGStab:  Solving for p, Initial residual = 0.395671, Final residual = 0.00128125, No Iterations 38
time step continuity errors : sum local = 0.165275, global = -0.164866, cumulative = -0.682586
BiCGStab:  Solving for p, Initial residual = 0.246523, Final residual = 0.00160581, No Iterations 36
time step continuity errors : sum local = 0.168182, global = -0.167908, cumulative = -0.850494
BiCGStab:  Solving for i, Initial residual = 0.00450297, Final residual = 2.67841e-11, No Iterations 2
BiCGStab:  Solving for epsilon, Initial residual = 0.0918569, Final residual = 1.04329e-09, No Iterations 3
BiCGStab:  Solving for k, Initial residual = 0.456633, Final residual = 1.58021e-10, No Iterations 4
ExecutionTime = 0.68 s  ClockTime = 0 s

Flux divergence min = 0.000497013 max = 14319.6 average: 24.4408
Mach number min = 0.0935665 max = 0.493523
Field Urel magnitude min = 0 max = 131.836
Field p min = 86313 max = 160142
Field rho min = 1.02858 max = 1.61478
Field T min = 288.784 max = 309.149
Time = 3

BiCGStab:  Solving for Urelx, Initial residual = 0.261147, Final residual = 2.69526e-10, No Iterations 4
BiCGStab:  Solving for Urely, Initial residual = 0.239659, Final residual = 4.68949e-11, No Iterations 4
BiCGStab:  Solving for Urelz, Initial residual = 0.180878, Final residual = 3.28599e-09, No Iterations 3
BiCGStab:  Solving for p, Initial residual = 0.261894, Final residual = 0.00257953, No Iterations 36
time step continuity errors : sum local = 0.107786, global = -0.101683, cumulative = -0.952177
BiCGStab:  Solving for p, Initial residual = 0.169079, Final residual = 0.00111771, No Iterations 36
time step continuity errors : sum local = 0.109742, global = -0.105224, cumulative = -1.0574
BiCGStab:  Solving for i, Initial residual = 0.00353098, Final residual = 2.86657e-11, No Iterations 2
BiCGStab:  Solving for epsilon, Initial residual = 0.164031, Final residual = 7.70318e-10, No Iterations 3
BiCGStab:  Solving for k, Initial residual = 0.274109, Final residual = 4.31877e-09, No Iterations 3
ExecutionTime = 0.92 s  ClockTime = 1 s

Flux divergence min = 2.12948e-05 max = 17516.4 average: 16.6684
Mach number min = 0.0407686 max = 0.494298
Field Urel magnitude min = 0 max = 136.879
Field p min = 92004.5 max = 161330
Field rho min = 1.04137 max = 1.71011
Field T min = 291.49 max = 312.536
Time = 4

BiCGStab:  Solving for Urelx, Initial residual = 0.188479, Final residual = 8.36339e-10, No Iterations 4
BiCGStab:  Solving for Urely, Initial residual = 0.158967, Final residual = 8.81529e-09, No Iterations 3
BiCGStab:  Solving for Urelz, Initial residual = 0.137259, Final residual = 4.76183e-09, No Iterations 3
BiCGStab:  Solving for p, Initial residual = 0.195775, Final residual = 0.00180447, No Iterations 32
time step continuity errors : sum local = 0.0601755, global = -0.033714, cumulative = -1.09111
BiCGStab:  Solving for p, Initial residual = 0.129528, Final residual = 0.000577538, No Iterations 33
time step continuity errors : sum local = 0.0592699, global = -0.0352949, cumulative = -1.12641
BiCGStab:  Solving for i, Initial residual = 0.00280703, Final residual = 2.83539e-11, No Iterations 2
BiCGStab:  Solving for epsilon, Initial residual = 0.147091, Final residual = 3.49161e-10, No Iterations 3
BiCGStab:  Solving for k, Initial residual = 0.170415, Final residual = 2.83623e-09, No Iterations 3
ExecutionTime = 1.15 s  ClockTime = 1 s

Flux divergence min = 3.38167e-06 max = 5252.96 average: 8.96404
Mach number min = 0.043707 max = 0.49939
Field Urel magnitude min = 0 max = 140.711
Field p min = 99343.6 max = 158502
Field rho min = 1.09115 max = 1.74061
Field T min = 292.95 max = 312.987
Time = 5

BiCGStab:  Solving for Urelx, Initial residual = 0.153489, Final residual = 1.92572e-10, No Iterations 4
BiCGStab:  Solving for Urely, Initial residual = 0.137752, Final residual = 7.28606e-09, No Iterations 3
BiCGStab:  Solving for Urelz, Initial residual = 0.134795, Final residual = 7.31173e-09, No Iterations 3
BiCGStab:  Solving for p, Initial residual = 0.168592, Final residual = 0.00128996, No Iterations 30
time step continuity errors : sum local = 0.0500908, global = 0.015164, cumulative = -1.11125
BiCGStab:  Solving for p, Initial residual = 0.111056, Final residual = 0.000840781, No Iterations 30
time step continuity errors : sum local = 0.04872, global = 0.014331, cumulative = -1.09691
BiCGStab:  Solving for i, Initial residual = 0.00237803, Final residual = 1.66516e-11, No Iterations 2
BiCGStab:  Solving for epsilon, Initial residual = 0.116795, Final residual = 2.074e-10, No Iterations 3
BiCGStab:  Solving for k, Initial residual = 0.111589, Final residual = 1.74966e-09, No Iterations 3
ExecutionTime = 1.36 s  ClockTime = 1 s

Flux divergence min = 2.23385e-05 max = 3500.5 average: 6.07977
Mach number min = 0.0558242 max = 0.500559
Field Urel magnitude min = 0 max = 141.582
Field p min = 98732.4 max = 153699
Field rho min = 1.15012 max = 1.73239
Field T min = 293.756 max = 312.556
Time = 6

BiCGStab:  Solving for Urelx, Initial residual = 0.133074, Final residual = 1.14327e-10, No Iterations 4
BiCGStab:  Solving for Urely, Initial residual = 0.130803, Final residual = 2.56491e-09, No Iterations 3
BiCGStab:  Solving for Urelz, Initial residual = 0.129556, Final residual = 3.12309e-09, No Iterations 3
BiCGStab:  Solving for p, Initial residual = 0.147715, Final residual = 0.0011758, No Iterations 30
time step continuity errors : sum local = 0.0562883, global = 0.0430938, cumulative = -1.05382
BiCGStab:  Solving for p, Initial residual = 0.0970661, Final residual = 0.000931637, No Iterations 30
time step continuity errors : sum local = 0.0555866, global = 0.0429635, cumulative = -1.01086
BiCGStab:  Solving for i, Initial residual = 0.00219052, Final residual = 1.4515e-11, No Iterations 2
BiCGStab:  Solving for epsilon, Initial residual = 0.0912393, Final residual = 1.39669e-10, No Iterations 3
BiCGStab:  Solving for k, Initial residual = 0.0760368, Final residual = 1.71335e-09, No Iterations 3
ExecutionTime = 1.58 s  ClockTime = 1 s

Flux divergence min = 7.90033e-05 max = 3658.76 average: 6.1196
Mach number min = 0.0601045 max = 0.499722
Field Urel magnitude min = 0 max = 141.627
Field p min = 96970.9 max = 148972
Field rho min = 1.15445 max = 1.70315
Field T min = 294.209 max = 312.21
Time = 7

BiCGStab:  Solving for Urelx, Initial residual = 0.120849, Final residual = 6.85887e-09, No Iterations 3
BiCGStab:  Solving for Urely, Initial residual = 0.114939, Final residual = 6.62817e-09, No Iterations 3
BiCGStab:  Solving for Urelz, Initial residual = 0.131674, Final residual = 5.89507e-09, No Iterations 3
BiCGStab:  Solving for p, Initial residual = 0.130394, Final residual = 0.00103838, No Iterations 31
time step continuity errors : sum local = 0.0576416, global = 0.0524773, cumulative = -0.95838
BiCGStab:  Solving for p, Initial residual = 0.085479, Final residual = 0.000390458, No Iterations 34
time step continuity errors : sum local = 0.0564449, global = 0.0516183, cumulative = -0.906761
BiCGStab:  Solving for i, Initial residual = 0.00194403, Final residual = 1.19986e-11, No Iterations 2
BiCGStab:  Solving for epsilon, Initial residual = 0.0714687, Final residual = 1.00933e-10, No Iterations 3
BiCGStab:  Solving for k, Initial residual = 0.0553496, Final residual = 2.51551e-09, No Iterations 3
ExecutionTime = 1.8 s  ClockTime = 1 s

Flux divergence min = 4.08733e-05 max = 2885.48 average: 4.19665
Mach number min = 0.060591 max = 0.499096
Field Urel magnitude min = 0 max = 141.736
Field p min = 95140.4 max = 145367
Field rho min = 1.1401 max = 1.66741
Field T min = 294.444 max = 312.338
Time = 8

BiCGStab:  Solving for Urelx, Initial residual = 0.11633, Final residual = 6.73584e-09, No Iterations 3
BiCGStab:  Solving for Urely, Initial residual = 0.0977104, Final residual = 7.80576e-12, No Iterations 4
BiCGStab:  Solving for Urelz, Initial residual = 0.116463, Final residual = 4.26096e-09, No Iterations 3
BiCGStab:  Solving for p, Initial residual = 0.112471, Final residual = 0.000490372, No Iterations 35
time step continuity errors : sum local = 0.0483561, global = 0.0430476, cumulative = -0.863714
BiCGStab:  Solving for p, Initial residual = 0.0739581, Final residual = 0.000719366, No Iterations 32
time step continuity errors : sum local = 0.0470285, global = 0.0418001, cumulative = -0.821914
BiCGStab:  Solving for i, Initial residual = 0.00195454, Final residual = 1.09274e-11, No Iterations 2
BiCGStab:  Solving for epsilon, Initial residual = 0.0563301, Final residual = 7.61334e-11, No Iterations 3
BiCGStab:  Solving for k, Initial residual = 0.0439422, Final residual = 1.05361e-09, No Iterations 3
ExecutionTime = 2.02 s  ClockTime = 2 s

Flux divergence min = 0.000546385 max = 1916.42 average: 4.66437
Mach number min = 0.0636978 max = 0.499716
Field Urel magnitude min = 0 max = 142.325
Field p min = 94692.8 max = 142063
Field rho min = 1.13124 max = 1.6342
Field T min = 294.542 max = 312.441
Time = 9

BiCGStab:  Solving for Urelx, Initial residual = 0.115774, Final residual = 8.66388e-11, No Iterations 4
BiCGStab:  Solving for Urely, Initial residual = 0.0887022, Final residual = 1.73464e-09, No Iterations 3
BiCGStab:  Solving for Urelz, Initial residual = 0.0944523, Final residual = 3.52173e-09, No Iterations 3
BiCGStab:  Solving for p, Initial residual = 0.100454, Final residual = 0.000829178, No Iterations 26
time step continuity errors : sum local = 0.0350851, global = 0.0192906, cumulative = -0.802623
BiCGStab:  Solving for p, Initial residual = 0.0668646, Final residual = 0.000642589, No Iterations 25
time step continuity errors : sum local = 0.0337473, global = 0.0181648, cumulative = -0.784458
BiCGStab:  Solving for i, Initial residual = 0.00184828, Final residual = 7.49617e-12, No Iterations 2
BiCGStab:  Solving for epsilon, Initial residual = 0.0453852, Final residual = 4.2546e-11, No Iterations 3
BiCGStab:  Solving for k, Initial residual = 0.0379187, Final residual = 8.17557e-10, No Iterations 3
ExecutionTime = 2.22 s  ClockTime = 2 s

Flux divergence min = 2.16895e-05 max = 1362.85 average: 3.81714
Mach number min = 0.0676531 max = 0.502929
Field Urel magnitude min = 0 max = 143.929
Field p min = 96198.7 max = 139069
Field rho min = 1.13584 max = 1.60169
Field T min = 294.522 max = 312.423
Time = 10

BiCGStab:  Solving for Urelx, Initial residual = 0.113853, Final residual = 8.29443e-11, No Iterations 4
BiCGStab:  Solving for Urely, Initial residual = 0.087143, Final residual = 1.76363e-09, No Iterations 3
BiCGStab:  Solving for Urelz, Initial residual = 0.0853547, Final residual = 3.97364e-09, No Iterations 3
BiCGStab:  Solving for p, Initial residual = 0.0963828, Final residual = 0.000677063, No Iterations 24
time step continuity errors : sum local = 0.0281898, global = -0.00405733, cumulative = -0.788516
BiCGStab:  Solving for p, Initial residual = 0.0645217, Final residual = 0.00034611, No Iterations 26
time step continuity errors : sum local = 0.0274103, global = -0.00507578, cumulative = -0.793591
BiCGStab:  Solving for i, Initial residual = 0.00187476, Final residual = 9.15522e-12, No Iterations 2
BiCGStab:  Solving for epsilon, Initial residual = 0.0372243, Final residual = 5.01271e-11, No Iterations 3
BiCGStab:  Solving for k, Initial residual = 0.0343435, Final residual = 6.60246e-10, No Iterations 3
ExecutionTime = 2.42 s  ClockTime = 2 s

Flux divergence min = 3.32192e-05 max = 1213 average: 3.73907
Mach number min = 0.0696629 max = 0.508226
Field Urel magnitude min = 0 max = 146.312
Field p min = 98519.4 max = 137167
Field rho min = 1.1513 max = 1.58531
Field T min = 294.398 max = 312.349
Time = 11

BiCGStab:  Solving for Urelx, Initial residual = 0.107118, Final residual = 1.09685e-10, No Iterations 4
BiCGStab:  Solving for Urely, Initial residual = 0.0855656, Final residual = 1.40489e-11, No Iterations 4
BiCGStab:  Solving for Urelz, Initial residual = 0.0783674, Final residual = 2.16614e-09, No Iterations 3
BiCGStab:  Solving for p, Initial residual = 0.0945283, Final residual = 0.000921467, No Iterations 27
time step continuity errors : sum local = 0.0294892, global = -0.0198656, cumulative = -0.813457
BiCGStab:  Solving for p, Initial residual = 0.0635272, Final residual = 0.000597226, No Iterations 27
time step continuity errors : sum local = 0.0294678, global = -0.0208238, cumulative = -0.834281
BiCGStab:  Solving for i, Initial residual = 0.0019259, Final residual = 9.11867e-12, No Iterations 2
BiCGStab:  Solving for epsilon, Initial residual = 0.0309594, Final residual = 2.35721e-11, No Iterations 3
BiCGStab:  Solving for k, Initial residual = 0.031505, Final residual = 6.38949e-10, No Iterations 3
ExecutionTime = 2.62 s  ClockTime = 2 s

Flux divergence min = 1.48064e-05 max = 1293.91 average: 4.63202
Mach number min = 0.0683698 max = 0.514704
Field Urel magnitude min = 0 max = 149.072
Field p min = 100963 max = 136971
Field rho min = 1.17299 max = 1.58703
Field T min = 294.043 max = 312.171
Time = 12

BiCGStab:  Solving for Urelx, Initial residual = 0.0973617, Final residual = 9.84552e-11, No Iterations 4
BiCGStab:  Solving for Urely, Initial residual = 0.0735821, Final residual = 5.66747e-09, No Iterations 3
BiCGStab:  Solving for Urelz, Initial residual = 0.075075, Final residual = 2.1853e-09, No Iterations 3
BiCGStab:  Solving for p, Initial residual = 0.0924877, Final residual = 0.000782098, No Iterations 27
time step continuity errors : sum local = 0.0310299, global = -0.0240953, cumulative = -0.858376
BiCGStab:  Solving for p, Initial residual = 0.0624826, Final residual = 0.000480092, No Iterations 27
time step continuity errors : sum local = 0.0305136, global = -0.0240645, cumulative = -0.882441
BiCGStab:  Solving for i, Initial residual = 0.00183298, Final residual = 7.83812e-12, No Iterations 2
BiCGStab:  Solving for epsilon, Initial residual = 0.0263565, Final residual = 1.89705e-11, No Iterations 3
BiCGStab:  Solving for k, Initial residual = 0.0295506, Final residual = 5.53825e-10, No Iterations 3
ExecutionTime = 2.82 s  ClockTime = 2 s

Flux divergence min = 2.92478e-05 max = 858.193 average: 3.78861
Mach number min = 0.0638166 max = 0.520919
Field Urel magnitude min = 0 max = 151.705
Field p min = 100635 max = 138334
Field rho min = 1.16027 max = 1.58746
Field T min = 293.656 max = 311.918
Time = 13

BiCGStab:  Solving for Urelx, Initial residual = 0.0879053, Final residual = 6.99351e-11, No Iterations 4
BiCGStab:  Solving for Urely, Initial residual = 0.0610243, Final residual = 1.48566e-09, No Iterations 3
BiCGStab:  Solving for Urelz, Initial residual = 0.0792832, Final residual = 3.28375e-09, No Iterations 3
BiCGStab:  Solving for p, Initial residual = 0.0932274, Final residual = 0.000468713, No Iterations 27
time step continuity errors : sum local = 0.026974, global = -0.015391, cumulative = -0.897832
BiCGStab:  Solving for p, Initial residual = 0.0628546, Final residual = 0.000584251, No Iterations 25
time step continuity errors : sum local = 0.0260607, global = -0.014483, cumulative = -0.912315
BiCGStab:  Solving for i, Initial residual = 0.00183612, Final residual = 7.68379e-12, No Iterations 2
BiCGStab:  Solving for epsilon, Initial residual = 0.022904, Final residual = 2.05345e-11, No Iterations 3
BiCGStab:  Solving for k, Initial residual = 0.0281757, Final residual = 3.50156e-10, No Iterations 3
ExecutionTime = 3.04 s  ClockTime = 3 s

Flux divergence min = 0.000523871 max = 1271.11 average: 3.93319
Mach number min = 0.0575381 max = 0.525125
Field Urel magnitude min = 0 max = 153.567
Field p min = 100465 max = 140342
Field rho min = 1.1538 max = 1.58718
Field T min = 293.379 max = 311.642
Time = 14

BiCGStab:  Solving for Urelx, Initial residual = 0.0817014, Final residual = 5.42957e-11, No Iterations 4
BiCGStab:  Solving for Urely, Initial residual = 0.0544929, Final residual = 1.28642e-09, No Iterations 3
BiCGStab:  Solving for Urelz, Initial residual = 0.0757912, Final residual = 1.83354e-09, No Iterations 3
BiCGStab:  Solving for p, Initial residual = 0.0940131, Final residual = 0.000495839, No Iterations 24
time step continuity errors : sum local = 0.0230967, global = -0.000481117, cumulative = -0.912796
BiCGStab:  Solving for p, Initial residual = 0.0627983, Final residual = 0.000380234, No Iterations 25
time step continuity errors : sum local = 0.0222605, global = -0.000335404, cumulative = -0.913131
BiCGStab:  Solving for i, Initial residual = 0.0017113, Final residual = 7.14651e-12, No Iterations 2
BiCGStab:  Solving for epsilon, Initial residual = 0.0206572, Final residual = 1.88815e-11, No Iterations 3
BiCGStab:  Solving for k, Initial residual = 0.0271503, Final residual = 3.02346e-10, No Iterations 3
ExecutionTime = 3.23 s  ClockTime = 3 s

Flux divergence min = 5.94552e-05 max = 1772.83 average: 2.7143
Mach number min = 0.0511079 max = 0.526944
Field Urel magnitude min = 0 max = 154.508
Field p min = 100012 max = 142053
Field rho min = 1.16047 max = 1.5895
Field T min = 293.24 max = 311.347
Time = 15

BiCGStab:  Solving for Urelx, Initial residual = 0.0773843, Final residual = 3.83679e-11, No Iterations 4
BiCGStab:  Solving for Urely, Initial residual = 0.0495348, Final residual = 1.51389e-09, No Iterations 3
BiCGStab:  Solving for Urelz, Initial residual = 0.0660514, Final residual = 1.56107e-09, No Iterations 3
BiCGStab:  Solving for p, Initial residual = 0.0920873, Final residual = 0.000579202, No Iterations 29
time step continuity errors : sum local = 0.0224392, global = 0.0127078, cumulative = -0.900423
BiCGStab:  Solving for p, Initial residual = 0.0610486, Final residual = 0.000608982, No Iterations 28
time step continuity errors : sum local = 0.0217299, global = 0.012645, cumulative = -0.887778
BiCGStab:  Solving for i, Initial residual = 0.00176743, Final residual = 7.14671e-12, No Iterations 2
BiCGStab:  Solving for epsilon, Initial residual = 0.0199384, Final residual = 9.39804e-12, No Iterations 3
BiCGStab:  Solving for k, Initial residual = 0.0263643, Final residual = 3.36375e-10, No Iterations 3
ExecutionTime = 3.44 s  ClockTime = 3 s

Flux divergence min = 1.49951e-06 max = 1149.98 average: 3.00438
Mach number min = 0.0467564 max = 0.527121
Field Urel magnitude min = 0 max = 154.78
Field p min = 99554.4 max = 142295
Field rho min = 1.1691 max = 1.59745
Field T min = 293.204 max = 311.093
Time = 16

BiCGStab:  Solving for Urelx, Initial residual = 0.0735339, Final residual = 4.63556e-09, No Iterations 3
BiCGStab:  Solving for Urely, Initial residual = 0.0467547, Final residual = 1.1905e-09, No Iterations 3
BiCGStab:  Solving for Urelz, Initial residual = 0.061364, Final residual = 1.91991e-09, No Iterations 3
BiCGStab:  Solving for p, Initial residual = 0.0879963, Final residual = 0.000695658, No Iterations 27
time step continuity errors : sum local = 0.0253156, global = 0.02178, cumulative = -0.865998
BiCGStab:  Solving for p, Initial residual = 0.0584129, Final residual = 0.000479508, No Iterations 24
time step continuity errors : sum local = 0.024042, global = 0.0207129, cumulative = -0.845285
BiCGStab:  Solving for i, Initial residual = 0.00176436, Final residual = 6.74928e-12, No Iterations 2
BiCGStab:  Solving for epsilon, Initial residual = 0.0185068, Final residual = 9.50552e-09, No Iterations 2
BiCGStab:  Solving for k, Initial residual = 0.025148, Final residual = 2.7509e-10, No Iterations 3
ExecutionTime = 3.64 s  ClockTime = 3 s

Flux divergence min = 3.27116e-06 max = 690.745 average: 2.7012
Mach number min = 0.0453374 max = 0.526434
Field Urel magnitude min = 0 max = 154.68
Field p min = 99001.8 max = 140988
Field rho min = 1.16647 max = 1.59382
Field T min = 293.225 max = 310.892
Time = 17

BiCGStab:  Solving for Urelx, Initial residual = 0.071162, Final residual = 3.26344e-09, No Iterations 3
BiCGStab:  Solving for Urely, Initial residual = 0.0496946, Final residual = 1.20085e-09, No Iterations 3
BiCGStab:  Solving for Urelz, Initial residual = 0.0584234, Final residual = 1.55215e-09, No Iterations 3
BiCGStab:  Solving for p, Initial residual = 0.085421, Final residual = 0.000567873, No Iterations 29
time step continuity errors : sum local = 0.0259208, global = 0.0227706, cumulative = -0.822515
BiCGStab:  Solving for p, Initial residual = 0.0567431, Final residual = 0.000488171, No Iterations 26
time step continuity errors : sum local = 0.0250899, global = 0.0221069, cumulative = -0.800408
BiCGStab:  Solving for i, Initial residual = 0.00180613, Final residual = 6.81086e-12, No Iterations 2
BiCGStab:  Solving for epsilon, Initial residual = 0.0172252, Final residual = 8.03688e-09, No Iterations 2
BiCGStab:  Solving for k, Initial residual = 0.0240015, Final residual = 2.69393e-10, No Iterations 3
ExecutionTime = 3.84 s  ClockTime = 3 s

Flux divergence min = 1.28809e-05 max = 1101.64 average: 3.07212
Mach number min = 0.0461847 max = 0.526085
Field Urel magnitude min = 0 max = 154.691
Field p min = 98700.7 max = 138786
Field rho min = 1.16419 max = 1.58571
Field T min = 293.23 max = 310.742
Time = 18

BiCGStab:  Solving for Urelx, Initial residual = 0.0713569, Final residual = 4.66956e-09, No Iterations 3
BiCGStab:  Solving for Urely, Initial residual = 0.0521322, Final residual = 1.12348e-09, No Iterations 3
BiCGStab:  Solving for Urelz, Initial residual = 0.0568673, Final residual = 1.10899e-09, No Iterations 3
BiCGStab:  Solving for p, Initial residual = 0.0834708, Final residual = 0.000827742, No Iterations 28
time step continuity errors : sum local = 0.0234904, global = 0.0176415, cumulative = -0.782766
BiCGStab:  Solving for p, Initial residual = 0.055814, Final residual = 0.000532261, No Iterations 29
time step continuity errors : sum local = 0.0228881, global = 0.0170293, cumulative = -0.765737
BiCGStab:  Solving for i, Initial residual = 0.00183595, Final residual = 6.22664e-12, No Iterations 2
BiCGStab:  Solving for epsilon, Initial residual = 0.0160394, Final residual = 6.78563e-09, No Iterations 2
BiCGStab:  Solving for k, Initial residual = 0.0230933, Final residual = 2.56134e-10, No Iterations 3
ExecutionTime = 4.05 s  ClockTime = 4 s

Flux divergence min = 5.50747e-05 max = 1210.83 average: 3.44999
Mach number min = 0.0478974 max = 0.526947
Field Urel magnitude min = 0 max = 155.186
Field p min = 99362.2 max = 136525
Field rho min = 1.16654 max = 1.58551
Field T min = 293.16 max = 310.603
Time = 19

BiCGStab:  Solving for Urelx, Initial residual = 0.0730887, Final residual = 3.38498e-11, No Iterations 4
BiCGStab:  Solving for Urely, Initial residual = 0.0504187, Final residual = 1.18067e-09, No Iterations 3
BiCGStab:  Solving for Urelz, Initial residual = 0.0594671, Final residual = 1.24088e-09, No Iterations 3
BiCGStab:  Solving for p, Initial residual = 0.0831416, Final residual = 0.00064261, No Iterations 33
time step continuity errors : sum local = 0.0218883, global = 0.00967122, cumulative = -0.756066
BiCGStab:  Solving for p, Initial residual = 0.0557427, Final residual = 0.000532585, No Iterations 29
time step continuity errors : sum local = 0.0217023, global = 0.00943614, cumulative = -0.74663
BiCGStab:  Solving for i, Initial residual = 0.00181926, Final residual = 6.12237e-12, No Iterations 2
BiCGStab:  Solving for epsilon, Initial residual = 0.0150298, Final residual = 5.85342e-09, No Iterations 2
BiCGStab:  Solving for k, Initial residual = 0.0223268, Final residual = 2.39913e-10, No Iterations 3
ExecutionTime = 4.27 s  ClockTime = 4 s

Flux divergence min = 1.17078e-06 max = 1315.75 average: 3.36778
Mach number min = 0.0489485 max = 0.52948
Field Urel magnitude min = 0 max = 156.372
Field p min = 100480 max = 135531
Field rho min = 1.15575 max = 1.58521
Field T min = 292.981 max = 310.442
Time = 20

BiCGStab:  Solving for Urelx, Initial residual = 0.0752151, Final residual = 3.12866e-11, No Iterations 4
BiCGStab:  Solving for Urely, Initial residual = 0.0451202, Final residual = 9.19026e-10, No Iterations 3
BiCGStab:  Solving for Urelz, Initial residual = 0.0596611, Final residual = 1.49093e-09, No Iterations 3
BiCGStab:  Solving for p, Initial residual = 0.0826798, Final residual = 0.000436106, No Iterations 34
time step continuity errors : sum local = 0.0218379, global = 0.00262721, cumulative = -0.744003
BiCGStab:  Solving for p, Initial residual = 0.0555469, Final residual = 0.000194508, No Iterations 36
time step continuity errors : sum local = 0.0214957, global = 0.0023361, cumulative = -0.741666
BiCGStab:  Solving for i, Initial residual = 0.00173992, Final residual = 5.50384e-12, No Iterations 2
BiCGStab:  Solving for epsilon, Initial residual = 0.0142837, Final residual = 5.15884e-09, No Iterations 2
BiCGStab:  Solving for k, Initial residual = 0.0218289, Final residual = 2.29599e-10, No Iterations 3
ExecutionTime = 4.49 s  ClockTime = 4 s

Flux divergence min = 2.60186e-06 max = 1319.03 average: 2.21214
Mach number min = 0.0479884 max = 0.533085
Field Urel magnitude min = 0 max = 157.909
Field p min = 99209.8 max = 135450
Field rho min = 1.13938 max = 1.58472
Field T min = 292.747 max = 310.238
Time = 21

BiCGStab:  Solving for Urelx, Initial residual = 0.0772553, Final residual = 4.16022e-11, No Iterations 4
BiCGStab:  Solving for Urely, Initial residual = 0.0398865, Final residual = 8.84162e-10, No Iterations 3
BiCGStab:  Solving for Urelz, Initial residual = 0.0540558, Final residual = 9.90253e-10, No Iterations 3
BiCGStab:  Solving for p, Initial residual = 0.0814418, Final residual = 0.000805942, No Iterations 34
time step continuity errors : sum local = 0.0228794, global = -0.00387795, cumulative = -0.745544
BiCGStab:  Solving for p, Initial residual = 0.0549595, Final residual = 0.000531722, No Iterations 26
time step continuity errors : sum local = 0.0223058, global = -0.00400869, cumulative = -0.749553
BiCGStab:  Solving for i, Initial residual = 0.00179595, Final residual = 5.63028e-12, No Iterations 2
BiCGStab:  Solving for epsilon, Initial residual = 0.013802, Final residual = 4.69308e-09, No Iterations 2
BiCGStab:  Solving for k, Initial residual = 0.0214471, Final residual = 2.39782e-10, No Iterations 3
ExecutionTime = 4.7 s  ClockTime = 4 s

Flux divergence min = 5.984e-08 max = 889.376 average: 3.06015
Mach number min = 0.0452299 max = 0.537287
Field Urel magnitude min = 0 max = 159.567
Field p min = 99510.9 max = 135330
Field rho min = 1.13354 max = 1.58397
Field T min = 292.491 max = 309.994
Time = 22

BiCGStab:  Solving for Urelx, Initial residual = 0.0792054, Final residual = 4.12717e-11, No Iterations 4
BiCGStab:  Solving for Urely, Initial residual = 0.0389241, Final residual = 7.90415e-10, No Iterations 3
BiCGStab:  Solving for Urelz, Initial residual = 0.049782, Final residual = 9.16918e-10, No Iterations 3
BiCGStab:  Solving for p, Initial residual = 0.0818325, Final residual = 0.000644985, No Iterations 25
time step continuity errors : sum local = 0.0225075, global = -0.00819605, cumulative = -0.757749
BiCGStab:  Solving for p, Initial residual = 0.0554501, Final residual = 0.000482359, No Iterations 26
time step continuity errors : sum local = 0.0221681, global = -0.00868083, cumulative = -0.76643
BiCGStab:  Solving for i, Initial residual = 0.00180288, Final residual = 5.95826e-12, No Iterations 2
BiCGStab:  Solving for epsilon, Initial residual = 0.0133125, Final residual = 4.32064e-09, No Iterations 2
BiCGStab:  Solving for k, Initial residual = 0.0211865, Final residual = 3.45941e-10, No Iterations 3
ExecutionTime = 4.9 s  ClockTime = 4 s

Flux divergence min = 8.1153e-06 max = 548.079 average: 2.98138
Mach number min = 0.0418782 max = 0.541466
Field Urel magnitude min = 0 max = 161.194
Field p min = 100982 max = 135186
Field rho min = 1.14196 max = 1.58293
Field T min = 292.24 max = 309.867
Time = 23

BiCGStab:  Solving for Urelx, Initial residual = 0.0805629, Final residual = 5.75078e-09, No Iterations 3
BiCGStab:  Solving for Urely, Initial residual = 0.041798, Final residual = 9.47912e-10, No Iterations 3
BiCGStab:  Solving for Urelz, Initial residual = 0.0500596, Final residual = 1.11652e-09, No Iterations 3
BiCGStab:  Solving for p, Initial residual = 0.0827888, Final residual = 0.00079229, No Iterations 28
time step continuity errors : sum local = 0.0214517, global = -0.012036, cumulative = -0.778466
BiCGStab:  Solving for p, Initial residual = 0.0562548, Final residual = 0.000495682, No Iterations 32
time step continuity errors : sum local = 0.0214093, global = -0.012707, cumulative = -0.791173
BiCGStab:  Solving for i, Initial residual = 0.00183489, Final residual = 5.85135e-12, No Iterations 2
BiCGStab:  Solving for epsilon, Initial residual = 0.0127883, Final residual = 3.97365e-09, No Iterations 2
BiCGStab:  Solving for k, Initial residual = 0.0209222, Final residual = 1.57115e-10, No Iterations 3
ExecutionTime = 5.11 s  ClockTime = 5 s

Flux divergence min = 3.07388e-05 max = 867.027 average: 3.54515
Mach number min = 0.0395757 max = 0.545482
Field Urel magnitude min = 0 max = 162.769
Field p min = 101035 max = 135015
Field rho min = 1.16243 max = 1.58173
Field T min = 291.992 max = 309.705
Time = 24

BiCGStab:  Solving for Urelx, Initial residual = 0.079904, Final residual = 5.97603e-09, No Iterations 3
BiCGStab:  Solving for Urely, Initial residual = 0.0431132, Final residual = 9.85657e-10, No Iterations 3
BiCGStab:  Solving for Urelz, Initial residual = 0.0501545, Final residual = 8.65966e-10, No Iterations 3
BiCGStab:  Solving for p, Initial residual = 0.0847439, Final residual = 0.000248724, No Iterations 32
time step continuity errors : sum local = 0.0207815, global = -0.0151103, cumulative = -0.806283
BiCGStab:  Solving for p, Initial residual = 0.0575529, Final residual = 0.000477927, No Iterations 31
time step continuity errors : sum local = 0.0208131, global = -0.0157052, cumulative = -0.821989
BiCGStab:  Solving for i, Initial residual = 0.00185806, Final residual = 5.5222e-12, No Iterations 2
BiCGStab:  Solving for epsilon, Initial residual = 0.0122968, Final residual = 3.65769e-09, No Iterations 2
BiCGStab:  Solving for k, Initial residual = 0.0206659, Final residual = 1.89149e-10, No Iterations 3
ExecutionTime = 5.33 s  ClockTime = 5 s

Flux divergence min = 1.32433e-07 max = 1502.23 average: 3.94863
Mach number min = 0.0393693 max = 0.549684
Field Urel magnitude min = 0 max = 164.459
Field p min = 101095 max = 135932
Field rho min = 1.17485 max = 1.5803
Field T min = 291.72 max = 309.494
Time = 25

BiCGStab:  Solving for Urelx, Initial residual = 0.0774336, Final residual = 4.28369e-11, No Iterations 4
BiCGStab:  Solving for Urely, Initial residual = 0.0428975, Final residual = 8.16748e-10, No Iterations 3
BiCGStab:  Solving for Urelz, Initial residual = 0.0481155, Final residual = 7.11995e-10, No Iterations 3
BiCGStab:  Solving for p, Initial residual = 0.0865298, Final residual = 0.000354387, No Iterations 34
time step continuity errors : sum local = 0.0197205, global = -0.0156188, cumulative = -0.837607
BiCGStab:  Solving for p, Initial residual = 0.0587348, Final residual = 0.0002918, No Iterations 34
time step continuity errors : sum local = 0.0196015, global = -0.0159742, cumulative = -0.853582
BiCGStab:  Solving for i, Initial residual = 0.00180218, Final residual = 4.94493e-12, No Iterations 2
BiCGStab:  Solving for epsilon, Initial residual = 0.0117754, Final residual = 3.36154e-09, No Iterations 2
BiCGStab:  Solving for k, Initial residual = 0.0203766, Final residual = 1.54633e-10, No Iterations 3
ExecutionTime = 5.55 s  ClockTime = 5 s

Flux divergence min = 5.63539e-06 max = 1701.99 average: 3.32793
Mach number min = 0.0414248 max = 0.554375
Field Urel magnitude min = 0 max = 166.387
Field p min = 101042 max = 137894
Field rho min = 1.17513 max = 1.57865
Field T min = 291.409 max = 309.36
Time = 26

BiCGStab:  Solving for Urelx, Initial residual = 0.0737073, Final residual = 9.6577e-09, No Iterations 3
BiCGStab:  Solving for Urely, Initial residual = 0.042687, Final residual = 8.33806e-10, No Iterations 3
BiCGStab:  Solving for Urelz, Initial residual = 0.0464136, Final residual = 7.27501e-10, No Iterations 3
BiCGStab:  Solving for p, Initial residual = 0.0887716, Final residual = 0.000856272, No Iterations 32
time step continuity errors : sum local = 0.0174285, global = -0.0115176, cumulative = -0.865099
BiCGStab:  Solving for p, Initial residual = 0.060055, Final residual = 0.000388925, No Iterations 32
time step continuity errors : sum local = 0.0171038, global = -0.0119584, cumulative = -0.877058
BiCGStab:  Solving for i, Initial residual = 0.00179298, Final residual = 5.43937e-12, No Iterations 2
BiCGStab:  Solving for epsilon, Initial residual = 0.0112946, Final residual = 3.1177e-09, No Iterations 2
BiCGStab:  Solving for k, Initial residual = 0.0200388, Final residual = 1.2852e-10, No Iterations 3
ExecutionTime = 5.77 s  ClockTime = 5 s

Flux divergence min = 7.16188e-06 max = 1321.16 average: 3.24415
Mach number min = 0.0451874 max = 0.55891
Field Urel magnitude min = 0 max = 168.178
Field p min = 100889 max = 139680
Field rho min = 1.17439 max = 1.57689
Field T min = 291.118 max = 309.266
Time = 27

BiCGStab:  Solving for Urelx, Initial residual = 0.0693432, Final residual = 4.5046e-09, No Iterations 3
BiCGStab:  Solving for Urely, Initial residual = 0.0419997, Final residual = 9.18572e-10, No Iterations 3
BiCGStab:  Solving for Urelz, Initial residual = 0.0452439, Final residual = 8.7926e-10, No Iterations 3
BiCGStab:  Solving for p, Initial residual = 0.0909848, Final residual = 0.000898156, No Iterations 23
time step continuity errors : sum local = 0.0162019, global = -0.00355506, cumulative = -0.880613
BiCGStab:  Solving for p, Initial residual = 0.0612667, Final residual = 0.000547241, No Iterations 24
time step continuity errors : sum local = 0.0155049, global = -0.0035187, cumulative = -0.884131
BiCGStab:  Solving for i, Initial residual = 0.00177944, Final residual = 4.87629e-12, No Iterations 2
BiCGStab:  Solving for epsilon, Initial residual = 0.0108276, Final residual = 2.93235e-09, No Iterations 2
BiCGStab:  Solving for k, Initial residual = 0.019634, Final residual = 1.23952e-10, No Iterations 3
ExecutionTime = 5.96 s  ClockTime = 6 s

Flux divergence min = 1.2689e-05 max = 658.696 average: 3.01151
Mach number min = 0.0489133 max = 0.562426
Field Urel magnitude min = 0 max = 169.481
Field p min = 100714 max = 140564
Field rho min = 1.17351 max = 1.57973
Field T min = 290.905 max = 309.196
Time = 28

BiCGStab:  Solving for Urelx, Initial residual = 0.0652058, Final residual = 3.65628e-09, No Iterations 3
BiCGStab:  Solving for Urely, Initial residual = 0.0419596, Final residual = 8.02942e-10, No Iterations 3
BiCGStab:  Solving for Urelz, Initial residual = 0.0426537, Final residual = 6.5703e-10, No Iterations 3
BiCGStab:  Solving for p, Initial residual = 0.0917349, Final residual = 0.000624536, No Iterations 27
time step continuity errors : sum local = 0.0165843, global = 0.00547291, cumulative = -0.878658
BiCGStab:  Solving for p, Initial residual = 0.0613248, Final residual = 0.000415165, No Iterations 27
time step continuity errors : sum local = 0.0164347, global = 0.00612673, cumulative = -0.872532
BiCGStab:  Solving for i, Initial residual = 0.00172699, Final residual = 5.08676e-12, No Iterations 2
BiCGStab:  Solving for epsilon, Initial residual = 0.0104029, Final residual = 2.79618e-09, No Iterations 2
BiCGStab:  Solving for k, Initial residual = 0.0191874, Final residual = 1.30721e-10, No Iterations 3
ExecutionTime = 6.17 s  ClockTime = 6 s

Flux divergence min = 1.13561e-06 max = 745.366 average: 2.48363
Mach number min = 0.0497214 max = 0.564461
Field Urel magnitude min = 0 max = 170.216
Field p min = 100472 max = 140044
Field rho min = 1.17302 max = 1.58422
Field T min = 290.789 max = 309.052
Time = 29

BiCGStab:  Solving for Urelx, Initial residual = 0.0622158, Final residual = 8.73826e-09, No Iterations 3
BiCGStab:  Solving for Urely, Initial residual = 0.0411391, Final residual = 6.06782e-10, No Iterations 3
BiCGStab:  Solving for Urelz, Initial residual = 0.0399609, Final residual = 5.20154e-10, No Iterations 3
BiCGStab:  Solving for p, Initial residual = 0.0903226, Final residual = 0.000680704, No Iterations 31
time step continuity errors : sum local = 0.0200549, global = 0.0153672, cumulative = -0.857165
BiCGStab:  Solving for p, Initial residual = 0.0599394, Final residual = 0.000581034, No Iterations 31
time step continuity errors : sum local = 0.0196242, global = 0.0154125, cumulative = -0.841752
BiCGStab:  Solving for i, Initial residual = 0.00176072, Final residual = 3.77171e-12, No Iterations 2
BiCGStab:  Solving for epsilon, Initial residual = 0.00996862, Final residual = 2.70065e-09, No Iterations 2
BiCGStab:  Solving for k, Initial residual = 0.0187245, Final residual = 1.54658e-10, No Iterations 3
ExecutionTime = 6.38 s  ClockTime = 6 s

Flux divergence min = 9.51559e-06 max = 1306.3 average: 3.07686
Mach number min = 0.0462877 max = 0.564614
Field Urel magnitude min = 0 max = 170.336
Field p min = 99429 max = 138212
Field rho min = 1.15305 max = 1.57693
Field T min = 290.773 max = 308.895
Time = 30

BiCGStab:  Solving for Urelx, Initial residual = 0.0601619, Final residual = 1.30485e-11, No Iterations 4
BiCGStab:  Solving for Urely, Initial residual = 0.0399375, Final residual = 6.67419e-10, No Iterations 3
BiCGStab:  Solving for Urelz, Initial residual = 0.0387985, Final residual = 6.20076e-10, No Iterations 3
BiCGStab:  Solving for p, Initial residual = 0.087934, Final residual = 0.000849628, No Iterations 38
time step continuity errors : sum local = 0.0235818, global = 0.0215891, cumulative = -0.820163
BiCGStab:  Solving for p, Initial residual = 0.0584281, Final residual = 0.000333895, No Iterations 39
time step continuity errors : sum local = 0.0228219, global = 0.0209698, cumulative = -0.799193
BiCGStab:  Solving for i, Initial residual = 0.00177379, Final residual = 4.51464e-12, No Iterations 2
BiCGStab:  Solving for epsilon, Initial residual = 0.00953874, Final residual = 2.62779e-09, No Iterations 2
BiCGStab:  Solving for k, Initial residual = 0.0182593, Final residual = 1.79934e-10, No Iterations 3
ExecutionTime = 6.62 s  ClockTime = 6 s

Flux divergence min = 9.17631e-06 max = 1437.45 average: 2.20968
Mach number min = 0.04049 max = 0.563131
Field Urel magnitude min = 0 max = 169.878
Field p min = 99016.2 max = 135796
Field rho min = 1.14082 max = 1.57193
Field T min = 290.855 max = 308.764
Time = 31

BiCGStab:  Solving for Urelx, Initial residual = 0.059929, Final residual = 2.27173e-09, No Iterations 3
BiCGStab:  Solving for Urely, Initial residual = 0.0379474, Final residual = 4.26265e-10, No Iterations 3
BiCGStab:  Solving for Urelz, Initial residual = 0.0377867, Final residual = 9.13471e-10, No Iterations 3
BiCGStab:  Solving for p, Initial residual = 0.0866693, Final residual = 0.000317907, No Iterations 40
time step continuity errors : sum local = 0.0214593, global = 0.0191694, cumulative = -0.780024
BiCGStab:  Solving for p, Initial residual = 0.0577111, Final residual = 0.000227671, No Iterations 40
time step continuity errors : sum local = 0.0209215, global = 0.0187165, cumulative = -0.761307
BiCGStab:  Solving for i, Initial residual = 0.00172724, Final residual = 4.51481e-12, No Iterations 2
BiCGStab:  Solving for epsilon, Initial residual = 0.00918609, Final residual = 2.56429e-09, No Iterations 2
BiCGStab:  Solving for k, Initial residual = 0.0177977, Final residual = 1.74351e-10, No Iterations 3
ExecutionTime = 6.85 s  ClockTime = 6 s

Flux divergence min = 4.47333e-06 max = 1113.52 average: 1.84093
Mach number min = 0.0362541 max = 0.562042
Field Urel magnitude min = 0 max = 169.64
Field p min = 100201 max = 133873
Field rho min = 1.1438 max = 1.57143
Field T min = 290.897 max = 308.674
Time = 32

BiCGStab:  Solving for Urelx, Initial residual = 0.0609361, Final residual = 5.27476e-09, No Iterations 3
BiCGStab:  Solving for Urely, Initial residual = 0.0362568, Final residual = 4.43701e-10, No Iterations 3
BiCGStab:  Solving for Urelz, Initial residual = 0.0358181, Final residual = 7.86565e-10, No Iterations 3
BiCGStab:  Solving for p, Initial residual = 0.0854185, Final residual = 0.000817886, No Iterations 39
time step continuity errors : sum local = 0.0169183, global = 0.0107488, cumulative = -0.750558
BiCGStab:  Solving for p, Initial residual = 0.0573916, Final residual = 0.000565208, No Iterations 38
time step continuity errors : sum local = 0.0163237, global = 0.0102405, cumulative = -0.740318
BiCGStab:  Solving for i, Initial residual = 0.00175193, Final residual = 4.73894e-12, No Iterations 2
BiCGStab:  Solving for epsilon, Initial residual = 0.00892464, Final residual = 2.50918e-09, No Iterations 2
BiCGStab:  Solving for k, Initial residual = 0.0174008, Final residual = 1.51893e-10, No Iterations 3
ExecutionTime = 7.08 s  ClockTime = 7 s

Flux divergence min = 1.96551e-05 max = 527.576 average: 2.43703
Mach number min = 0.0356866 max = 0.562973
Field Urel magnitude min = 0 max = 170.101
Field p min = 100691 max = 133817
Field rho min = 1.16133 max = 1.57098
Field T min = 290.825 max = 308.58
Time = 33

BiCGStab:  Solving for Urelx, Initial residual = 0.0620055, Final residual = 2.90256e-09, No Iterations 3
BiCGStab:  Solving for Urely, Initial residual = 0.0363644, Final residual = 1.11398e-09, No Iterations 3
BiCGStab:  Solving for Urelz, Initial residual = 0.0332677, Final residual = 5.72113e-10, No Iterations 3
BiCGStab:  Solving for p, Initial residual = 0.0863207, Final residual = 0.000762534, No Iterations 26
time step continuity errors : sum local = 0.0149892, global = 0.000389086, cumulative = -0.739929
BiCGStab:  Solving for p, Initial residual = 0.058373, Final residual = 0.000334917, No Iterations 27
time step continuity errors : sum local = 0.0145991, global = -0.000341057, cumulative = -0.74027
BiCGStab:  Solving for i, Initial residual = 0.00177777, Final residual = 4.92004e-12, No Iterations 2
BiCGStab:  Solving for epsilon, Initial residual = 0.00876609, Final residual = 2.46519e-09, No Iterations 2
BiCGStab:  Solving for k, Initial residual = 0.0171273, Final residual = 1.30849e-10, No Iterations 3
ExecutionTime = 7.28 s  ClockTime = 7 s

Flux divergence min = 9.52993e-08 max = 467.616 average: 2.30666
Mach number min = 0.0366815 max = 0.565999
Field Urel magnitude min = 0 max = 171.229
Field p min = 100881 max = 133711
Field rho min = 1.17458 max = 1.57032
Field T min = 290.642 max = 308.489
Time = 34

BiCGStab:  Solving for Urelx, Initial residual = 0.0621745, Final residual = 2.18549e-09, No Iterations 3
BiCGStab:  Solving for Urely, Initial residual = 0.0378413, Final residual = 7.29775e-10, No Iterations 3
BiCGStab:  Solving for Urelz, Initial residual = 0.0309768, Final residual = 5.30399e-10, No Iterations 3
BiCGStab:  Solving for p, Initial residual = 0.0886171, Final residual = 0.000534636, No Iterations 32
time step continuity errors : sum local = 0.0161537, global = -0.00899206, cumulative = -0.749262
BiCGStab:  Solving for p, Initial residual = 0.0603748, Final residual = 0.000452674, No Iterations 31
time step continuity errors : sum local = 0.016372, global = -0.00984515, cumulative = -0.759107
BiCGStab:  Solving for i, Initial residual = 0.00181832, Final residual = 4.80804e-12, No Iterations 2
BiCGStab:  Solving for epsilon, Initial residual = 0.00864889, Final residual = 2.41833e-09, No Iterations 2
BiCGStab:  Solving for k, Initial residual = 0.0169292, Final residual = 1.14623e-10, No Iterations 3
ExecutionTime = 7.5 s  ClockTime = 7 s

Flux divergence min = 9.98535e-08 max = 1051.35 average: 3.06344
Mach number min = 0.0388362 max = 0.570739
Field Urel magnitude min = 0 max = 172.871
Field p min = 100933 max = 135237
Field rho min = 1.17555 max = 1.56937
Field T min = 290.368 max = 308.406
Time = 35

BiCGStab:  Solving for Urelx, Initial residual = 0.0607998, Final residual = 3.13439e-09, No Iterations 3
BiCGStab:  Solving for Urely, Initial residual = 0.0390357, Final residual = 5.07786e-10, No Iterations 3
BiCGStab:  Solving for Urelz, Initial residual = 0.0301614, Final residual = 6.7291e-10, No Iterations 3
BiCGStab:  Solving for p, Initial residual = 0.0917304, Final residual = 0.000790742, No Iterations 32
time step continuity errors : sum local = 0.0178088, global = -0.014092, cumulative = -0.773199
BiCGStab:  Solving for p, Initial residual = 0.0625178, Final residual = 0.000284882, No Iterations 36
time step continuity errors : sum local = 0.0179917, global = -0.0146588, cumulative = -0.787858
BiCGStab:  Solving for i, Initial residual = 0.00178173, Final residual = 4.43358e-12, No Iterations 2
BiCGStab:  Solving for epsilon, Initial residual = 0.00847992, Final residual = 2.38552e-09, No Iterations 2
BiCGStab:  Solving for k, Initial residual = 0.0167039, Final residual = 9.89991e-11, No Iterations 3
ExecutionTime = 7.72 s  ClockTime = 7 s

Flux divergence min = 4.58591e-06 max = 1222.2 average: 2.65683
Mach number min = 0.0447317 max = 0.575778
Field Urel magnitude min = 0 max = 174.713
Field p min = 100966 max = 137214
Field rho min = 1.17642 max = 1.56811
Field T min = 290.059 max = 308.44
Time = 36

BiCGStab:  Solving for Urelx, Initial residual = 0.0583209, Final residual = 9.35538e-09, No Iterations 3
BiCGStab:  Solving for Urely, Initial residual = 0.0405648, Final residual = 5.46088e-10, No Iterations 3
BiCGStab:  Solving for Urelz, Initial residual = 0.0302544, Final residual = 5.76883e-10, No Iterations 3
BiCGStab:  Solving for p, Initial residual = 0.0931908, Final residual = 0.000906356, No Iterations 35
time step continuity errors : sum local = 0.0163741, global = -0.0130076, cumulative = -0.800865
BiCGStab:  Solving for p, Initial residual = 0.0630352, Final residual = 0.000619906, No Iterations 35
time step continuity errors : sum local = 0.0162626, global = -0.0131804, cumulative = -0.814046
BiCGStab:  Solving for i, Initial residual = 0.00182071, Final residual = 4.6762e-12, No Iterations 2
BiCGStab:  Solving for epsilon, Initial residual = 0.00822156, Final residual = 2.33981e-09, No Iterations 2
BiCGStab:  Solving for k, Initial residual = 0.0163976, Final residual = 1.00757e-10, No Iterations 3
ExecutionTime = 7.94 s  ClockTime = 8 s

Flux divergence min = 3.14483e-06 max = 925.779 average: 3.38181
Mach number min = 0.0525817 max = 0.579774
Field Urel magnitude min = 0 max = 176.185
Field p min = 100976 max = 138716
Field rho min = 1.17691 max = 1.56663
Field T min = 289.807 max = 308.452
Time = 37

BiCGStab:  Solving for Urelx, Initial residual = 0.0554422, Final residual = 7.80944e-09, No Iterations 3
BiCGStab:  Solving for Urely, Initial residual = 0.0418869, Final residual = 7.42701e-10, No Iterations 3
BiCGStab:  Solving for Urelz, Initial residual = 0.0298527, Final residual = 4.34094e-10, No Iterations 3
BiCGStab:  Solving for p, Initial residual = 0.092298, Final residual = 0.00065809, No Iterations 31
time step continuity errors : sum local = 0.0136971, global = -0.00832926, cumulative = -0.822375
BiCGStab:  Solving for p, Initial residual = 0.062335, Final residual = 0.000346083, No Iterations 31
time step continuity errors : sum local = 0.012906, global = -0.00753169, cumulative = -0.829907
BiCGStab:  Solving for i, Initial residual = 0.00173506, Final residual = 4.43111e-12, No Iterations 2
BiCGStab:  Solving for epsilon, Initial residual = 0.00790934, Final residual = 2.26967e-09, No Iterations 2
BiCGStab:  Solving for k, Initial residual = 0.0160384, Final residual = 1.02696e-10, No Iterations 3
ExecutionTime = 8.16 s  ClockTime = 8 s

Flux divergence min = 7.84727e-05 max = 776.845 average: 2.14069
Mach number min = 0.0571529 max = 0.582293
Field Urel magnitude min = 0 max = 177.151
Field p min = 101007 max = 139217
Field rho min = 1.1774 max = 1.57233
Field T min = 289.638 max = 308.388
Time = 38

BiCGStab:  Solving for Urelx, Initial residual = 0.0529451, Final residual = 4.43165e-09, No Iterations 3
BiCGStab:  Solving for Urely, Initial residual = 0.041647, Final residual = 7.35408e-10, No Iterations 3
BiCGStab:  Solving for Urelz, Initial residual = 0.0286884, Final residual = 4.33938e-10, No Iterations 3
BiCGStab:  Solving for p, Initial residual = 0.0910308, Final residual = 0.000799881, No Iterations 23
time step continuity errors : sum local = 0.0112886, global = 0.000789415, cumulative = -0.829117
BiCGStab:  Solving for p, Initial residual = 0.0611601, Final residual = 0.000573033, No Iterations 24
time step continuity errors : sum local = 0.0108813, global = 0.00105466, cumulative = -0.828063
BiCGStab:  Solving for i, Initial residual = 0.00176714, Final residual = 9.89827e-12, No Iterations 2
BiCGStab:  Solving for epsilon, Initial residual = 0.00767326, Final residual = 2.21308e-09, No Iterations 2
BiCGStab:  Solving for k, Initial residual = 0.0156854, Final residual = 1.06236e-10, No Iterations 3
ExecutionTime = 8.35 s  ClockTime = 8 s

Flux divergence min = 2.52264e-06 max = 693.297 average: 2.5572
Mach number min = 0.0552485 max = 0.583249
Field Urel magnitude min = 0 max = 177.619
Field p min = 98755.7 max = 138668
Field rho min = 1.15376 max = 1.57475
Field T min = 289.56 max = 308.28
Time = 39

BiCGStab:  Solving for Urelx, Initial residual = 0.0513024, Final residual = 2.68283e-09, No Iterations 3
BiCGStab:  Solving for Urely, Initial residual = 0.0406968, Final residual = 6.92091e-10, No Iterations 3
BiCGStab:  Solving for Urelz, Initial residual = 0.0276465, Final residual = 5.36907e-10, No Iterations 3
BiCGStab:  Solving for p, Initial residual = 0.0898379, Final residual = 0.000514361, No Iterations 35
time step continuity errors : sum local = 0.0134731, global = 0.00919692, cumulative = -0.818866
BiCGStab:  Solving for p, Initial residual = 0.0601985, Final residual = 0.000499728, No Iterations 28
time step continuity errors : sum local = 0.01293, global = 0.0090746, cumulative = -0.809791
BiCGStab:  Solving for i, Initial residual = 0.00175456, Final residual = 3.35434e-12, No Iterations 2
BiCGStab:  Solving for epsilon, Initial residual = 0.00757721, Final residual = 2.16354e-09, No Iterations 2
BiCGStab:  Solving for k, Initial residual = 0.0153408, Final residual = 1.05484e-10, No Iterations 3
ExecutionTime = 8.56 s  ClockTime = 8 s

Flux divergence min = 0.000107545 max = 717.439 average: 2.18364
Mach number min = 0.0475655 max = 0.582929
Field Urel magnitude min = 0 max = 177.559
Field p min = 96963.7 max = 137468
Field rho min = 1.13123 max = 1.56968
Field T min = 289.577 max = 308.136
Time = 40

BiCGStab:  Solving for Urelx, Initial residual = 0.0503889, Final residual = 2.05304e-09, No Iterations 3
BiCGStab:  Solving for Urely, Initial residual = 0.0385234, Final residual = 2.66519e-10, No Iterations 3
BiCGStab:  Solving for Urelz, Initial residual = 0.0270075, Final residual = 5.26053e-10, No Iterations 3
BiCGStab:  Solving for p, Initial residual = 0.088756, Final residual = 0.000573632, No Iterations 29
time step continuity errors : sum local = 0.0158287, global = 0.0137775, cumulative = -0.796014
BiCGStab:  Solving for p, Initial residual = 0.0593821, Final residual = 0.000125239, No Iterations 33
time step continuity errors : sum local = 0.0153184, global = 0.0134318, cumulative = -0.782582
BiCGStab:  Solving for i, Initial residual = 0.00171797, Final residual = 4.03367e-12, No Iterations 2
BiCGStab:  Solving for epsilon, Initial residual = 0.00750466, Final residual = 2.09841e-09, No Iterations 2
BiCGStab:  Solving for k, Initial residual = 0.0149609, Final residual = 1.03222e-10, No Iterations 3
ExecutionTime = 8.78 s  ClockTime = 8 s

Flux divergence min = 1.61912e-07 max = 733.077 average: 1.12863
Mach number min = 0.0387534 max = 0.582125
Field Urel magnitude min = 0 max = 177.288
Field p min = 96922.5 max = 136219
Field rho min = 1.12047 max = 1.5617
Field T min = 289.629 max = 308.004
Time = 41

BiCGStab:  Solving for Urelx, Initial residual = 0.0499866, Final residual = 4.71102e-09, No Iterations 3
BiCGStab:  Solving for Urely, Initial residual = 0.0350968, Final residual = 2.22077e-10, No Iterations 3
BiCGStab:  Solving for Urelz, Initial residual = 0.026332, Final residual = 3.79781e-10, No Iterations 3
BiCGStab:  Solving for p, Initial residual = 0.0865897, Final residual = 0.000765684, No Iterations 28
time step continuity errors : sum local = 0.0156855, global = 0.013687, cumulative = -0.768895
BiCGStab:  Solving for p, Initial residual = 0.0580203, Final residual = 0.000258362, No Iterations 31
time step continuity errors : sum local = 0.0151263, global = 0.0131958, cumulative = -0.755699
BiCGStab:  Solving for i, Initial residual = 0.00174678, Final residual = 3.36147e-12, No Iterations 2
BiCGStab:  Solving for epsilon, Initial residual = 0.00737674, Final residual = 1.99733e-09, No Iterations 2
BiCGStab:  Solving for k, Initial residual = 0.0145094, Final residual = 9.69709e-11, No Iterations 3
ExecutionTime = 8.98 s  ClockTime = 9 s

Flux divergence min = 2.17221e-07 max = 461.888 average: 1.53078
Mach number min = 0.035642 max = 0.581689
Field Urel magnitude min = 0 max = 177.167
Field p min = 98641.4 max = 135439
Field rho min = 1.12331 max = 1.56101
Field T min = 289.661 max = 307.941
Time = 42

BiCGStab:  Solving for Urelx, Initial residual = 0.0496772, Final residual = 1.6037e-09, No Iterations 3
BiCGStab:  Solving for Urely, Initial residual = 0.0321225, Final residual = 1.96382e-10, No Iterations 3
BiCGStab:  Solving for Urelz, Initial residual = 0.0255184, Final residual = 3.28961e-10, No Iterations 3
BiCGStab:  Solving for p, Initial residual = 0.0845985, Final residual = 0.000737167, No Iterations 29
time step continuity errors : sum local = 0.0127817, global = 0.00912702, cumulative = -0.746572
BiCGStab:  Solving for p, Initial residual = 0.056949, Final residual = 0.000298253, No Iterations 29
time step continuity errors : sum local = 0.0122615, global = 0.00860658, cumulative = -0.737965
BiCGStab:  Solving for i, Initial residual = 0.00173966, Final residual = 3.78564e-12, No Iterations 2
BiCGStab:  Solving for epsilon, Initial residual = 0.00716357, Final residual = 1.86876e-09, No Iterations 2
BiCGStab:  Solving for k, Initial residual = 0.0140069, Final residual = 8.9389e-11, No Iterations 3
ExecutionTime = 9.19 s  ClockTime = 9 s

Flux divergence min = 1.7306e-06 max = 500.7 average: 1.58819
Mach number min = 0.0374955 max = 0.582385
Field Urel magnitude min = 0 max = 177.503
Field p min = 99824.8 max = 135351
Field rho min = 1.13933 max = 1.56037
Field T min = 289.609 max = 307.97
Time = 43

BiCGStab:  Solving for Urelx, Initial residual = 0.048927, Final residual = 1.38326e-09, No Iterations 3
BiCGStab:  Solving for Urely, Initial residual = 0.0311677, Final residual = 1.70196e-10, No Iterations 3
BiCGStab:  Solving for Urelz, Initial residual = 0.0247199, Final residual = 4.02751e-10, No Iterations 3
BiCGStab:  Solving for p, Initial residual = 0.0845159, Final residual = 0.000788453, No Iterations 23
time step continuity errors : sum local = 0.0103859, global = 0.00267596, cumulative = -0.73529
BiCGStab:  Solving for p, Initial residual = 0.0571966, Final residual = 0.000542734, No Iterations 25
time step continuity errors : sum local = 0.00998911, global = 0.00245411, cumulative = -0.732835
BiCGStab:  Solving for i, Initial residual = 0.0017721, Final residual = 3.91926e-12, No Iterations 2
BiCGStab:  Solving for epsilon, Initial residual = 0.00690672, Final residual = 1.72986e-09, No Iterations 2
BiCGStab:  Solving for k, Initial residual = 0.0134969, Final residual = 8.2787e-11, No Iterations 3
ExecutionTime = 9.38 s  ClockTime = 9 s

Flux divergence min = 3.6422e-05 max = 395.249 average: 2.22176
Mach number min = 0.0384188 max = 0.584267
Field Urel magnitude min = 0 max = 178.204
Field p min = 99899.7 max = 135852
Field rho min = 1.16257 max = 1.55968
Field T min = 289.49 max = 307.966
Time = 44

BiCGStab:  Solving for Urelx, Initial residual = 0.047961, Final residual = 1.53882e-09, No Iterations 3
BiCGStab:  Solving for Urely, Initial residual = 0.032673, Final residual = 2.50221e-10, No Iterations 3
BiCGStab:  Solving for Urelz, Initial residual = 0.0243618, Final residual = 4.16487e-10, No Iterations 3
BiCGStab:  Solving for p, Initial residual = 0.0852709, Final residual = 0.000782625, No Iterations 24
time step continuity errors : sum local = 0.00967196, global = -0.00155086, cumulative = -0.734386
BiCGStab:  Solving for p, Initial residual = 0.0577165, Final residual = 0.000480627, No Iterations 30
time step continuity errors : sum local = 0.0094925, global = -0.00190679, cumulative = -0.736293
BiCGStab:  Solving for i, Initial residual = 0.00178582, Final residual = 3.88574e-12, No Iterations 2
BiCGStab:  Solving for epsilon, Initial residual = 0.00674218, Final residual = 1.59478e-09, No Iterations 2
BiCGStab:  Solving for k, Initial residual = 0.0130225, Final residual = 7.5553e-11, No Iterations 3
ExecutionTime = 9.59 s  ClockTime = 9 s

Flux divergence min = 2.3799e-06 max = 454.245 average: 2.28112
Mach number min = 0.0392019 max = 0.586532
Field Urel magnitude min = 0 max = 179.014
Field p min = 100101 max = 136618
Field rho min = 1.17743 max = 1.55885
Field T min = 289.347 max = 307.922
Time = 45

BiCGStab:  Solving for Urelx, Initial residual = 0.0470373, Final residual = 1.36866e-09, No Iterations 3
BiCGStab:  Solving for Urely, Initial residual = 0.0341384, Final residual = 2.34334e-10, No Iterations 3
BiCGStab:  Solving for Urelz, Initial residual = 0.024242, Final residual = 3.43826e-10, No Iterations 3
BiCGStab:  Solving for p, Initial residual = 0.0851496, Final residual = 0.000841491, No Iterations 24
time step continuity errors : sum local = 0.0097749, global = -0.00369867, cumulative = -0.739992
BiCGStab:  Solving for p, Initial residual = 0.0575924, Final residual = 0.000484455, No Iterations 29
time step continuity errors : sum local = 0.00965033, global = -0.00399848, cumulative = -0.74399
BiCGStab:  Solving for i, Initial residual = 0.00178567, Final residual = 3.66944e-12, No Iterations 2
BiCGStab:  Solving for epsilon, Initial residual = 0.00667742, Final residual = 1.47769e-09, No Iterations 2
BiCGStab:  Solving for k, Initial residual = 0.012594, Final residual = 6.93276e-11, No Iterations 3
ExecutionTime = 9.79 s  ClockTime = 9 s

Flux divergence min = 8.07487e-08 max = 381.512 average: 2.33072
Mach number min = 0.0438863 max = 0.5884
Field Urel magnitude min = 0 max = 179.71
Field p min = 100487 max = 137278
Field rho min = 1.17842 max = 1.55789
Field T min = 289.229 max = 307.962
Time = 46

BiCGStab:  Solving for Urelx, Initial residual = 0.046141, Final residual = 3.01186e-09, No Iterations 3
BiCGStab:  Solving for Urely, Initial residual = 0.0350051, Final residual = 2.36089e-10, No Iterations 3
BiCGStab:  Solving for Urelz, Initial residual = 0.0243908, Final residual = 3.01041e-10, No Iterations 3
BiCGStab:  Solving for p, Initial residual = 0.0845124, Final residual = 0.000746781, No Iterations 23
time step continuity errors : sum local = 0.00936529, global = -0.00288948, cumulative = -0.74688
BiCGStab:  Solving for p, Initial residual = 0.0570913, Final residual = 0.000509619, No Iterations 23
time step continuity errors : sum local = 0.00908621, global = -0.00290632, cumulative = -0.749786
BiCGStab:  Solving for i, Initial residual = 0.00177792, Final residual = 3.75103e-12, No Iterations 2
BiCGStab:  Solving for epsilon, Initial residual = 0.00669381, Final residual = 1.37826e-09, No Iterations 2
BiCGStab:  Solving for k, Initial residual = 0.0122184, Final residual = 6.4398e-11, No Iterations 3
ExecutionTime = 9.99 s  ClockTime = 10 s

Flux divergence min = 1.26459e-05 max = 459.47 average: 2.39009
Mach number min = 0.0504711 max = 0.58945
Field Urel magnitude min = 0 max = 180.114
Field p min = 100920 max = 137573
Field rho min = 1.17542 max = 1.56225
Field T min = 289.162 max = 308.003
Time = 47

BiCGStab:  Solving for Urelx, Initial residual = 0.0452357, Final residual = 2.06804e-09, No Iterations 3
BiCGStab:  Solving for Urely, Initial residual = 0.0353844, Final residual = 1.97783e-10, No Iterations 3
BiCGStab:  Solving for Urelz, Initial residual = 0.0239843, Final residual = 3.22927e-10, No Iterations 3
BiCGStab:  Solving for p, Initial residual = 0.0836012, Final residual = 0.00081984, No Iterations 25
time step continuity errors : sum local = 0.00877735, global = -0.000279992, cumulative = -0.750066
BiCGStab:  Solving for p, Initial residual = 0.0564106, Final residual = 0.000307832, No Iterations 26
time step continuity errors : sum local = 0.00843408, global = -0.000280792, cumulative = -0.750347
BiCGStab:  Solving for i, Initial residual = 0.00173448, Final residual = 3.65915e-12, No Iterations 2
BiCGStab:  Solving for epsilon, Initial residual = 0.00672304, Final residual = 1.28862e-09, No Iterations 2
BiCGStab:  Solving for k, Initial residual = 0.0118842, Final residual = 5.98032e-11, No Iterations 3
ExecutionTime = 10.19 s  ClockTime = 10 s

Flux divergence min = 4.5836e-05 max = 650.48 average: 1.80863
Mach number min = 0.0536295 max = 0.59003
Field Urel magnitude min = 0 max = 180.351
Field p min = 99824.7 max = 137434
Field rho min = 1.16011 max = 1.56385
Field T min = 289.125 max = 307.975
Time = 48

BiCGStab:  Solving for Urelx, Initial residual = 0.0445445, Final residual = 1.90367e-09, No Iterations 3
BiCGStab:  Solving for Urely, Initial residual = 0.0357697, Final residual = 2.44744e-10, No Iterations 3
BiCGStab:  Solving for Urelz, Initial residual = 0.0230344, Final residual = 3.36658e-10, No Iterations 3
BiCGStab:  Solving for p, Initial residual = 0.081873, Final residual = 0.000676375, No Iterations 29
time step continuity errors : sum local = 0.00887131, global = 0.00299452, cumulative = -0.747352
BiCGStab:  Solving for p, Initial residual = 0.055047, Final residual = 0.000495906, No Iterations 29
time step continuity errors : sum local = 0.00863947, global = 0.00318531, cumulative = -0.744167
BiCGStab:  Solving for i, Initial residual = 0.00174541, Final residual = 3.64767e-12, No Iterations 2
BiCGStab:  Solving for epsilon, Initial residual = 0.00669986, Final residual = 1.20148e-09, No Iterations 2
BiCGStab:  Solving for k, Initial residual = 0.0115385, Final residual = 5.41738e-11, No Iterations 3
ExecutionTime = 10.39 s  ClockTime = 10 s

Flux divergence min = 2.05177e-06 max = 660.076 average: 2.15773
Mach number min = 0.0510902 max = 0.590636
Field Urel magnitude min = 0 max = 180.633
Field p min = 97327.4 max = 136956
Field rho min = 1.13664 max = 1.56217
Field T min = 289.084 max = 307.903
Time = 49

BiCGStab:  Solving for Urelx, Initial residual = 0.0441517, Final residual = 8.63445e-12, No Iterations 4
BiCGStab:  Solving for Urely, Initial residual = 0.0349091, Final residual = 9.54374e-10, No Iterations 3
BiCGStab:  Solving for Urelz, Initial residual = 0.0222863, Final residual = 2.78339e-10, No Iterations 3
BiCGStab:  Solving for p, Initial residual = 0.0794975, Final residual = 0.000721358, No Iterations 30
time step continuity errors : sum local = 0.00996821, global = 0.00607363, cumulative = -0.738093
BiCGStab:  Solving for p, Initial residual = 0.0534914, Final residual = 0.000505954, No Iterations 30
time step continuity errors : sum local = 0.00983264, global = 0.00622032, cumulative = -0.731873
BiCGStab:  Solving for i, Initial residual = 0.00173922, Final residual = 3.6305e-12, No Iterations 2
BiCGStab:  Solving for epsilon, Initial residual = 0.0065816, Final residual = 1.11143e-09, No Iterations 2
BiCGStab:  Solving for k, Initial residual = 0.01114, Final residual = 4.57209e-11, No Iterations 3
ExecutionTime = 10.61 s  ClockTime = 10 s

Flux divergence min = 1.06501e-05 max = 437.294 average: 2.08653
Mach number min = 0.0443422 max = 0.591383
Field Urel magnitude min = 0 max = 180.997
Field p min = 95937.4 max = 136326
Field rho min = 1.11782 max = 1.558
Field T min = 289.026 max = 307.813
Time = 50

BiCGStab:  Solving for Urelx, Initial residual = 0.0439543, Final residual = 3.85627e-09, No Iterations 3
BiCGStab:  Solving for Urely, Initial residual = 0.0330228, Final residual = 4.94557e-10, No Iterations 3
BiCGStab:  Solving for Urelz, Initial residual = 0.0215768, Final residual = 2.27613e-10, No Iterations 3
BiCGStab:  Solving for p, Initial residual = 0.077538, Final residual = 0.000527943, No Iterations 32
time step continuity errors : sum local = 0.0108138, global = 0.00760747, cumulative = -0.724266
BiCGStab:  Solving for p, Initial residual = 0.0522431, Final residual = 0.000462834, No Iterations 32
time step continuity errors : sum local = 0.0105117, global = 0.00742384, cumulative = -0.716842
BiCGStab:  Solving for i, Initial residual = 0.00174102, Final residual = 3.59632e-12, No Iterations 2
BiCGStab:  Solving for epsilon, Initial residual = 0.00637053, Final residual = 1.01669e-09, No Iterations 2
BiCGStab:  Solving for k, Initial residual = 0.0106917, Final residual = 9.9593e-09, No Iterations 2
ExecutionTime = 10.83 s  ClockTime = 10 s

Flux divergence min = 2.12111e-05 max = 368.205 average: 1.91097
Mach number min = 0.0381511 max = 0.592172
Field Urel magnitude min = 0 max = 181.285
Field p min = 96015.4 max = 135735
Field rho min = 1.10731 max = 1.55325
Field T min = 288.979 max = 307.725
Time = 51

BiCGStab:  Solving for Urelx, Initial residual = 0.0435896, Final residual = 2.09334e-09, No Iterations 3
BiCGStab:  Solving for Urely, Initial residual = 0.0307296, Final residual = 2.1161e-10, No Iterations 3
BiCGStab:  Solving for Urelz, Initial residual = 0.0210325, Final residual = 2.5587e-10, No Iterations 3
BiCGStab:  Solving for p, Initial residual = 0.0762827, Final residual = 0.000728172, No Iterations 30
time step continuity errors : sum local = 0.00990291, global = 0.0061593, cumulative = -0.710682
BiCGStab:  Solving for p, Initial residual = 0.0514659, Final residual = 0.000432316, No Iterations 31
time step continuity errors : sum local = 0.00964994, global = 0.0061101, cumulative = -0.704572
BiCGStab:  Solving for i, Initial residual = 0.00173696, Final residual = 3.60212e-12, No Iterations 2
BiCGStab:  Solving for epsilon, Initial residual = 0.00609621, Final residual = 9.20677e-10, No Iterations 2
BiCGStab:  Solving for k, Initial residual = 0.0102188, Final residual = 8.21262e-09, No Iterations 2
ExecutionTime = 11.03 s  ClockTime = 11 s

Flux divergence min = 1.72721e-06 max = 403.989 average: 1.82118
Mach number min = 0.0365815 max = 0.593045
Field Urel magnitude min = 0 max = 181.596
Field p min = 97378.7 max = 135325
Field rho min = 1.10886 max = 1.55254
Field T min = 288.925 max = 307.77
Time = 52

BiCGStab:  Solving for Urelx, Initial residual = 0.0429211, Final residual = 1.82798e-09, No Iterations 3
BiCGStab:  Solving for Urely, Initial residual = 0.0287312, Final residual = 1.86072e-10, No Iterations 3
BiCGStab:  Solving for Urelz, Initial residual = 0.0207236, Final residual = 2.91438e-10, No Iterations 3
BiCGStab:  Solving for p, Initial residual = 0.0754047, Final residual = 0.000592549, No Iterations 24
time step continuity errors : sum local = 0.00858517, global = 0.00287051, cumulative = -0.701702
BiCGStab:  Solving for p, Initial residual = 0.0509771, Final residual = 0.000388133, No Iterations 24
time step continuity errors : sum local = 0.00826793, global = 0.00276504, cumulative = -0.698937
BiCGStab:  Solving for i, Initial residual = 0.0017147, Final residual = 3.41047e-12, No Iterations 2
BiCGStab:  Solving for epsilon, Initial residual = 0.00580479, Final residual = 8.31917e-10, No Iterations 2
BiCGStab:  Solving for k, Initial residual = 0.00976602, Final residual = 7.82381e-09, No Iterations 2
ExecutionTime = 11.22 s  ClockTime = 11 s

Flux divergence min = 0.000139798 max = 754.624 average: 1.58847
Mach number min = 0.0372988 max = 0.594052
Field Urel magnitude min = 0 max = 181.953
Field p min = 99331.6 max = 135171
Field rho min = 1.12016 max = 1.55178
Field T min = 288.863 max = 307.78
Time = 53

BiCGStab:  Solving for Urelx, Initial residual = 0.0419919, Final residual = 9.94733e-10, No Iterations 3
BiCGStab:  Solving for Urely, Initial residual = 0.0278935, Final residual = 1.47563e-10, No Iterations 3
BiCGStab:  Solving for Urelz, Initial residual = 0.0203529, Final residual = 2.50428e-10, No Iterations 3
BiCGStab:  Solving for p, Initial residual = 0.0746723, Final residual = 0.000362204, No Iterations 23
time step continuity errors : sum local = 0.00778168, global = -0.000312571, cumulative = -0.699249
BiCGStab:  Solving for p, Initial residual = 0.0505105, Final residual = 0.000402035, No Iterations 23
time step continuity errors : sum local = 0.00752516, global = -0.000477038, cumulative = -0.699726
BiCGStab:  Solving for i, Initial residual = 0.00174704, Final residual = 3.5001e-12, No Iterations 2
BiCGStab:  Solving for epsilon, Initial residual = 0.00554211, Final residual = 7.51552e-10, No Iterations 2
BiCGStab:  Solving for k, Initial residual = 0.00938252, Final residual = 7.5037e-09, No Iterations 2
ExecutionTime = 11.41 s  ClockTime = 11 s

Flux divergence min = 1.2151e-05 max = 864.837 average: 1.70785
Mach number min = 0.0375669 max = 0.595151
Field Urel magnitude min = 0 max = 182.343
Field p min = 99813.9 max = 135273
Field rho min = 1.13471 max = 1.55093
Field T min = 288.798 max = 307.752
Time = 54

BiCGStab:  Solving for Urelx, Initial residual = 0.040884, Final residual = 1.40664e-09, No Iterations 3
BiCGStab:  Solving for Urely, Initial residual = 0.0282711, Final residual = 1.03093e-09, No Iterations 3
BiCGStab:  Solving for Urelz, Initial residual = 0.0198482, Final residual = 1.80175e-10, No Iterations 3
BiCGStab:  Solving for p, Initial residual = 0.0734769, Final residual = 0.000487624, No Iterations 24
time step continuity errors : sum local = 0.00775395, global = -0.00270984, cumulative = -0.702436
BiCGStab:  Solving for p, Initial residual = 0.0497045, Final residual = 0.000398646, No Iterations 24
time step continuity errors : sum local = 0.00758657, global = -0.00284292, cumulative = -0.705279
BiCGStab:  Solving for i, Initial residual = 0.00174034, Final residual = 3.41483e-12, No Iterations 2
BiCGStab:  Solving for epsilon, Initial residual = 0.00533924, Final residual = 6.779e-10, No Iterations 2
BiCGStab:  Solving for k, Initial residual = 0.00907582, Final residual = 7.16898e-09, No Iterations 2
ExecutionTime = 11.61 s  ClockTime = 11 s

Flux divergence min = 6.55856e-07 max = 676.51 average: 1.65933
Mach number min = 0.0390681 max = 0.596455
Field Urel magnitude min = 0 max = 182.801
Field p min = 100292 max = 135590
Field rho min = 1.14569 max = 1.54995
Field T min = 288.723 max = 307.725
Time = 55

BiCGStab:  Solving for Urelx, Initial residual = 0.0394887, Final residual = 1.30584e-09, No Iterations 3
BiCGStab:  Solving for Urely, Initial residual = 0.0289857, Final residual = 7.40929e-10, No Iterations 3
BiCGStab:  Solving for Urelz, Initial residual = 0.0190356, Final residual = 1.82857e-10, No Iterations 3
BiCGStab:  Solving for p, Initial residual = 0.072261, Final residual = 0.000521672, No Iterations 24
time step continuity errors : sum local = 0.00776561, global = -0.0036357, cumulative = -0.708915
BiCGStab:  Solving for p, Initial residual = 0.0488885, Final residual = 0.000479055, No Iterations 24
time step continuity errors : sum local = 0.00753326, global = -0.0035584, cumulative = -0.712473
BiCGStab:  Solving for i, Initial residual = 0.0017528, Final residual = 3.32927e-12, No Iterations 2
BiCGStab:  Solving for epsilon, Initial residual = 0.005194, Final residual = 6.13249e-10, No Iterations 2
BiCGStab:  Solving for k, Initial residual = 0.00883163, Final residual = 6.92456e-09, No Iterations 2
ExecutionTime = 11.8 s  ClockTime = 11 s

Flux divergence min = 1.05917e-07 max = 295.053 average: 1.91799
Mach number min = 0.0429267 max = 0.598005
Field Urel magnitude min = 0 max = 183.378
Field p min = 100393 max = 136054
Field rho min = 1.14887 max = 1.54887
Field T min = 288.627 max = 307.774
Time = 56

BiCGStab:  Solving for Urelx, Initial residual = 0.0380855, Final residual = 2.97644e-09, No Iterations 3
BiCGStab:  Solving for Urely, Initial residual = 0.0301755, Final residual = 1.89116e-10, No Iterations 3
BiCGStab:  Solving for Urelz, Initial residual = 0.0182815, Final residual = 2.31227e-10, No Iterations 3
BiCGStab:  Solving for p, Initial residual = 0.0708611, Final residual = 0.000603781, No Iterations 22
time step continuity errors : sum local = 0.00706453, global = -0.00238823, cumulative = -0.714861
BiCGStab:  Solving for p, Initial residual = 0.0479106, Final residual = 0.000419726, No Iterations 23
time step continuity errors : sum local = 0.00696434, global = -0.00269076, cumulative = -0.717552
BiCGStab:  Solving for i, Initial residual = 0.00174441, Final residual = 3.20229e-12, No Iterations 2
BiCGStab:  Solving for epsilon, Initial residual = 0.00507898, Final residual = 5.60406e-10, No Iterations 2
BiCGStab:  Solving for k, Initial residual = 0.00862246, Final residual = 6.75844e-09, No Iterations 2
ExecutionTime = 11.99 s  ClockTime = 12 s

Flux divergence min = 1.3162e-06 max = 322.182 average: 1.74253
Mach number min = 0.0462467 max = 0.599707
Field Urel magnitude min = 0 max = 184.053
Field p min = 99694.3 max = 136562
Field rho min = 1.14392 max = 1.55244
Field T min = 288.511 max = 307.822
Time = 57

BiCGStab:  Solving for Urelx, Initial residual = 0.0368961, Final residual = 1.53276e-09, No Iterations 3
BiCGStab:  Solving for Urely, Initial residual = 0.0306897, Final residual = 1.36284e-10, No Iterations 3
BiCGStab:  Solving for Urelz, Initial residual = 0.0180778, Final residual = 2.19916e-10, No Iterations 3
BiCGStab:  Solving for p, Initial residual = 0.0692643, Final residual = 0.0006724, No Iterations 20
time step continuity errors : sum local = 0.00638205, global = -0.000513759, cumulative = -0.718066
BiCGStab:  Solving for p, Initial residual = 0.046742, Final residual = 0.000439803, No Iterations 20
time step continuity errors : sum local = 0.00615269, global = -0.000490011, cumulative = -0.718556
BiCGStab:  Solving for i, Initial residual = 0.00172296, Final residual = 3.16683e-12, No Iterations 2
BiCGStab:  Solving for epsilon, Initial residual = 0.0049499, Final residual = 5.18241e-10, No Iterations 2
BiCGStab:  Solving for k, Initial residual = 0.00841173, Final residual = 6.59136e-09, No Iterations 2
ExecutionTime = 12.17 s  ClockTime = 12 s

Flux divergence min = 8.09873e-05 max = 747.642 average: 1.71933
Mach number min = 0.046043 max = 0.601475
Field Urel magnitude min = 0 max = 184.692
Field p min = 98424.2 max = 136993
Field rho min = 1.13456 max = 1.55699
Field T min = 288.398 max = 307.79
Time = 58

BiCGStab:  Solving for Urelx, Initial residual = 0.0360908, Final residual = 7.04491e-12, No Iterations 4
BiCGStab:  Solving for Urely, Initial residual = 0.0301896, Final residual = 1.15721e-10, No Iterations 3
BiCGStab:  Solving for Urelz, Initial residual = 0.0184465, Final residual = 1.85044e-10, No Iterations 3
BiCGStab:  Solving for p, Initial residual = 0.0670516, Final residual = 0.000529188, No Iterations 23
time step continuity errors : sum local = 0.00611801, global = 0.00179612, cumulative = -0.71676
BiCGStab:  Solving for p, Initial residual = 0.0451665, Final residual = 0.000436086, No Iterations 23
time step continuity errors : sum local = 0.00593647, global = 0.00195341, cumulative = -0.714806
BiCGStab:  Solving for i, Initial residual = 0.00170952, Final residual = 3.11114e-12, No Iterations 2
BiCGStab:  Solving for epsilon, Initial residual = 0.00479519, Final residual = 4.88893e-10, No Iterations 2
BiCGStab:  Solving for k, Initial residual = 0.00818482, Final residual = 6.43264e-09, No Iterations 2
ExecutionTime = 12.37 s  ClockTime = 12 s

Flux divergence min = 5.07479e-06 max = 947.681 average: 1.63164
Mach number min = 0.0424303 max = 0.603099
Field Urel magnitude min = 0 max = 185.245
Field p min = 97573 max = 137223
Field rho min = 1.1248 max = 1.56052
Field T min = 288.301 max = 307.745
Time = 59

BiCGStab:  Solving for Urelx, Initial residual = 0.0356062, Final residual = 3.41124e-09, No Iterations 3
BiCGStab:  Solving for Urely, Initial residual = 0.0289395, Final residual = 4.06927e-10, No Iterations 3
BiCGStab:  Solving for Urelz, Initial residual = 0.0192628, Final residual = 1.71584e-10, No Iterations 3
BiCGStab:  Solving for p, Initial residual = 0.0645658, Final residual = 0.000599972, No Iterations 27
[...]
time step continuity errors : sum local = 2.26352e-05, global = 3.42138e-06, cumulative = -0.260689
BiCGStab:  Solving for i, Initial residual = 8.1671e-06, Final residual = 2.5986e-10, No Iterations 1
BiCGStab:  Solving for epsilon, Initial residual = 4.11968e-06, Final residual = 1.40658e-09, No Iterations 1
BiCGStab:  Solving for k, Initial residual = 7.71254e-06, Final residual = 6.6677e-09, No Iterations 1
ExecutionTime = 382.69 s  ClockTime = 382 s

Flux divergence min = 1.93199e-09 max = 2.59158 average: 0.0164887
Mach number min = 0.0510988 max = 0.858437
Field Urel magnitude min = 0 max = 267.364
Field p min = 76790.6 max = 135371
Field rho min = 0.90079 max = 1.5776
Field T min = 265.023 max = 329.568
Time = 1987

BiCGStab:  Solving for Urelx, Initial residual = 3.43325e-05, Final residual = 6.39469e-11, No Iterations 2
BiCGStab:  Solving for Urely, Initial residual = 0.000529406, Final residual = 5.67356e-09, No Iterations 2
BiCGStab:  Solving for Urelz, Initial residual = 0.00147557, Final residual = 8.4967e-09, No Iterations 2
BiCGStab:  Solving for p, Initial residual = 0.000695432, Final residual = 5.01586e-06, No Iterations 20
time step continuity errors : sum local = 3.22583e-05, global = 7.88508e-06, cumulative = -0.260681
BiCGStab:  Solving for p, Initial residual = 0.000689748, Final residual = 6.48418e-06, No Iterations 20
time step continuity errors : sum local = 2.26248e-05, global = 3.39351e-06, cumulative = -0.260678
BiCGStab:  Solving for i, Initial residual = 8.13444e-06, Final residual = 2.57754e-10, No Iterations 1
BiCGStab:  Solving for epsilon, Initial residual = 4.10089e-06, Final residual = 1.40015e-09, No Iterations 1
BiCGStab:  Solving for k, Initial residual = 7.67873e-06, Final residual = 6.6392e-09, No Iterations 1
ExecutionTime = 382.86 s  ClockTime = 382 s

Flux divergence min = 1.1664e-09 max = 2.5912 average: 0.0164864
Mach number min = 0.0510995 max = 0.858442
Field Urel magnitude min = 0 max = 267.366
Field p min = 76790.1 max = 135371
Field rho min = 0.900785 max = 1.5776
Field T min = 265.022 max = 329.569
Time = 1988

BiCGStab:  Solving for Urelx, Initial residual = 3.41702e-05, Final residual = 6.36574e-11, No Iterations 2
BiCGStab:  Solving for Urely, Initial residual = 0.000529404, Final residual = 5.6737e-09, No Iterations 2
BiCGStab:  Solving for Urelz, Initial residual = 0.00147558, Final residual = 8.49685e-09, No Iterations 2
BiCGStab:  Solving for p, Initial residual = 0.000695343, Final residual = 5.01894e-06, No Iterations 20
time step continuity errors : sum local = 3.22472e-05, global = 7.86062e-06, cumulative = -0.26067
BiCGStab:  Solving for p, Initial residual = 0.000689688, Final residual = 6.48282e-06, No Iterations 20
time step continuity errors : sum local = 2.26144e-05, global = 3.36576e-06, cumulative = -0.260666
BiCGStab:  Solving for i, Initial residual = 8.10203e-06, Final residual = 2.55653e-10, No Iterations 1
BiCGStab:  Solving for epsilon, Initial residual = 4.08216e-06, Final residual = 1.39375e-09, No Iterations 1
BiCGStab:  Solving for k, Initial residual = 7.64502e-06, Final residual = 6.6108e-09, No Iterations 1
ExecutionTime = 383.03 s  ClockTime = 383 s

Flux divergence min = 5.1083e-11 max = 2.59083 average: 0.016484
Mach number min = 0.0511001 max = 0.858447
Field Urel magnitude min = 0 max = 267.367
Field p min = 76789.7 max = 135371
Field rho min = 0.900781 max = 1.5776
Field T min = 265.022 max = 329.569
Time = 1989

BiCGStab:  Solving for Urelx, Initial residual = 3.40086e-05, Final residual = 6.33688e-11, No Iterations 2
BiCGStab:  Solving for Urely, Initial residual = 0.000529402, Final residual = 5.67383e-09, No Iterations 2
BiCGStab:  Solving for Urelz, Initial residual = 0.00147558, Final residual = 8.49699e-09, No Iterations 2
BiCGStab:  Solving for p, Initial residual = 0.000695255, Final residual = 5.02203e-06, No Iterations 20
time step continuity errors : sum local = 3.22361e-05, global = 7.83621e-06, cumulative = -0.260659
BiCGStab:  Solving for p, Initial residual = 0.000689628, Final residual = 6.48145e-06, No Iterations 20
time step continuity errors : sum local = 2.26041e-05, global = 3.33814e-06, cumulative = -0.260655
BiCGStab:  Solving for i, Initial residual = 8.06986e-06, Final residual = 2.53559e-10, No Iterations 1
BiCGStab:  Solving for epsilon, Initial residual = 4.0635e-06, Final residual = 1.38737e-09, No Iterations 1
BiCGStab:  Solving for k, Initial residual = 7.61141e-06, Final residual = 6.58249e-09, No Iterations 1
ExecutionTime = 383.22 s  ClockTime = 383 s

Flux divergence min = 1.43884e-09 max = 2.59045 average: 0.0164815
Mach number min = 0.0511007 max = 0.858452
Field Urel magnitude min = 0 max = 267.369
Field p min = 76789.2 max = 135371
Field rho min = 0.900777 max = 1.5776
Field T min = 265.021 max = 329.57
Time = 1990

BiCGStab:  Solving for Urelx, Initial residual = 3.38476e-05, Final residual = 6.30814e-11, No Iterations 2
BiCGStab:  Solving for Urely, Initial residual = 0.0005294, Final residual = 5.67397e-09, No Iterations 2
BiCGStab:  Solving for Urelz, Initial residual = 0.00147559, Final residual = 8.49713e-09, No Iterations 2
BiCGStab:  Solving for p, Initial residual = 0.000695167, Final residual = 5.02512e-06, No Iterations 20
time step continuity errors : sum local = 3.22251e-05, global = 7.81187e-06, cumulative = -0.260647
BiCGStab:  Solving for p, Initial residual = 0.000689569, Final residual = 6.48013e-06, No Iterations 20
time step continuity errors : sum local = 2.25939e-05, global = 3.31063e-06, cumulative = -0.260644
BiCGStab:  Solving for i, Initial residual = 8.03793e-06, Final residual = 2.51464e-10, No Iterations 1
BiCGStab:  Solving for epsilon, Initial residual = 4.0449e-06, Final residual = 1.38101e-09, No Iterations 1
BiCGStab:  Solving for k, Initial residual = 7.57791e-06, Final residual = 6.55428e-09, No Iterations 1
ExecutionTime = 383.4 s  ClockTime = 383 s

Flux divergence min = 2.04332e-10 max = 2.59008 average: 0.016479
Mach number min = 0.0511013 max = 0.858458
Field Urel magnitude min = 0 max = 267.371
Field p min = 76788.8 max = 135371
Field rho min = 0.900773 max = 1.5776
Field T min = 265.021 max = 329.571
Time = 1991

BiCGStab:  Solving for Urelx, Initial residual = 3.36872e-05, Final residual = 6.2795e-11, No Iterations 2
BiCGStab:  Solving for Urely, Initial residual = 0.000529398, Final residual = 5.6741e-09, No Iterations 2
BiCGStab:  Solving for Urelz, Initial residual = 0.00147559, Final residual = 8.49727e-09, No Iterations 2
BiCGStab:  Solving for p, Initial residual = 0.00069508, Final residual = 5.02822e-06, No Iterations 20
time step continuity errors : sum local = 3.22141e-05, global = 7.78758e-06, cumulative = -0.260636
BiCGStab:  Solving for p, Initial residual = 0.00068951, Final residual = 6.47881e-06, No Iterations 20
time step continuity errors : sum local = 2.25838e-05, global = 3.28325e-06, cumulative = -0.260633
BiCGStab:  Solving for i, Initial residual = 8.00624e-06, Final residual = 2.49366e-10, No Iterations 1
BiCGStab:  Solving for epsilon, Initial residual = 4.02636e-06, Final residual = 1.37467e-09, No Iterations 1
BiCGStab:  Solving for k, Initial residual = 7.54452e-06, Final residual = 6.52615e-09, No Iterations 1
ExecutionTime = 383.57 s  ClockTime = 383 s

Flux divergence min = 3.9223e-10 max = 2.5897 average: 0.0164765
Mach number min = 0.0511019 max = 0.858463
Field Urel magnitude min = 0 max = 267.372
Field p min = 76788.4 max = 135371
Field rho min = 0.900769 max = 1.5776
Field T min = 265.021 max = 329.571
Time = 1992

BiCGStab:  Solving for Urelx, Initial residual = 3.35274e-05, Final residual = 6.25096e-11, No Iterations 2
BiCGStab:  Solving for Urely, Initial residual = 0.000529396, Final residual = 5.67423e-09, No Iterations 2
BiCGStab:  Solving for Urelz, Initial residual = 0.0014756, Final residual = 8.49741e-09, No Iterations 2
BiCGStab:  Solving for p, Initial residual = 0.000694992, Final residual = 5.03133e-06, No Iterations 20
time step continuity errors : sum local = 3.22032e-05, global = 7.76336e-06, cumulative = -0.260625
BiCGStab:  Solving for p, Initial residual = 0.000689451, Final residual = 6.47747e-06, No Iterations 20
time step continuity errors : sum local = 2.25737e-05, global = 3.256e-06, cumulative = -0.260622
BiCGStab:  Solving for i, Initial residual = 7.9748e-06, Final residual = 2.4727e-10, No Iterations 1
BiCGStab:  Solving for epsilon, Initial residual = 4.00788e-06, Final residual = 1.36836e-09, No Iterations 1
BiCGStab:  Solving for k, Initial residual = 7.51123e-06, Final residual = 6.49813e-09, No Iterations 1
ExecutionTime = 383.74 s  ClockTime = 383 s

Flux divergence min = 1.93019e-09 max = 2.58933 average: 0.016474
Mach number min = 0.0511026 max = 0.858468
Field Urel magnitude min = 0 max = 267.374
Field p min = 76787.9 max = 135371
Field rho min = 0.900765 max = 1.5776
Field T min = 265.02 max = 329.572
Time = 1993

BiCGStab:  Solving for Urelx, Initial residual = 3.33683e-05, Final residual = 6.22251e-11, No Iterations 2
BiCGStab:  Solving for Urely, Initial residual = 0.000529394, Final residual = 5.67437e-09, No Iterations 2
BiCGStab:  Solving for Urelz, Initial residual = 0.0014756, Final residual = 8.49754e-09, No Iterations 2
BiCGStab:  Solving for p, Initial residual = 0.000694906, Final residual = 5.03444e-06, No Iterations 20
time step continuity errors : sum local = 3.21924e-05, global = 7.73921e-06, cumulative = -0.260614
BiCGStab:  Solving for p, Initial residual = 0.000689392, Final residual = 6.47612e-06, No Iterations 20
time step continuity errors : sum local = 2.25637e-05, global = 3.22887e-06, cumulative = -0.260611
BiCGStab:  Solving for i, Initial residual = 7.9436e-06, Final residual = 2.45181e-10, No Iterations 1
BiCGStab:  Solving for epsilon, Initial residual = 3.98946e-06, Final residual = 1.36206e-09, No Iterations 1
BiCGStab:  Solving for k, Initial residual = 7.47804e-06, Final residual = 6.4702e-09, No Iterations 1
ExecutionTime = 383.92 s  ClockTime = 384 s

Flux divergence min = 7.37443e-10 max = 2.58896 average: 0.0164714
Mach number min = 0.0511032 max = 0.858473
Field Urel magnitude min = 0 max = 267.375
Field p min = 76787.5 max = 135371
Field rho min = 0.900761 max = 1.5776
Field T min = 265.02 max = 329.572
Time = 1994

BiCGStab:  Solving for Urelx, Initial residual = 3.32098e-05, Final residual = 6.19418e-11, No Iterations 2
BiCGStab:  Solving for Urely, Initial residual = 0.000529393, Final residual = 5.6745e-09, No Iterations 2
BiCGStab:  Solving for Urelz, Initial residual = 0.00147561, Final residual = 8.49768e-09, No Iterations 2
BiCGStab:  Solving for p, Initial residual = 0.000694819, Final residual = 5.03755e-06, No Iterations 20
time step continuity errors : sum local = 3.21816e-05, global = 7.71511e-06, cumulative = -0.260603
BiCGStab:  Solving for p, Initial residual = 0.000689334, Final residual = 6.47474e-06, No Iterations 20
time step continuity errors : sum local = 2.25537e-05, global = 3.20186e-06, cumulative = -0.2606
BiCGStab:  Solving for i, Initial residual = 7.91262e-06, Final residual = 2.43084e-10, No Iterations 1
BiCGStab:  Solving for epsilon, Initial residual = 3.9711e-06, Final residual = 1.35579e-09, No Iterations 1
BiCGStab:  Solving for k, Initial residual = 7.44496e-06, Final residual = 6.44236e-09, No Iterations 1
ExecutionTime = 384.09 s  ClockTime = 384 s

Flux divergence min = 1.60955e-09 max = 2.58859 average: 0.0164688
Mach number min = 0.0511038 max = 0.858479
Field Urel magnitude min = 0 max = 267.377
Field p min = 76787 max = 135371
Field rho min = 0.900757 max = 1.5776
Field T min = 265.019 max = 329.573
Time = 1995

BiCGStab:  Solving for Urelx, Initial residual = 3.3052e-05, Final residual = 6.16594e-11, No Iterations 2
BiCGStab:  Solving for Urely, Initial residual = 0.000529391, Final residual = 5.67463e-09, No Iterations 2
BiCGStab:  Solving for Urelz, Initial residual = 0.00147561, Final residual = 8.49782e-09, No Iterations 2
BiCGStab:  Solving for p, Initial residual = 0.000694733, Final residual = 5.04067e-06, No Iterations 20
time step continuity errors : sum local = 3.21708e-05, global = 7.69108e-06, cumulative = -0.260593
BiCGStab:  Solving for p, Initial residual = 0.000689275, Final residual = 6.47333e-06, No Iterations 20
time step continuity errors : sum local = 2.25438e-05, global = 3.17498e-06, cumulative = -0.260589
BiCGStab:  Solving for i, Initial residual = 7.88188e-06, Final residual = 2.40994e-10, No Iterations 1
BiCGStab:  Solving for epsilon, Initial residual = 3.95281e-06, Final residual = 1.34954e-09, No Iterations 1
BiCGStab:  Solving for k, Initial residual = 7.41198e-06, Final residual = 6.4146e-09, No Iterations 1
ExecutionTime = 384.27 s  ClockTime = 384 s

Flux divergence min = 4.24057e-09 max = 2.58822 average: 0.016466
Mach number min = 0.0511044 max = 0.858484
Field Urel magnitude min = 0 max = 267.379
Field p min = 76786.6 max = 135371
Field rho min = 0.900753 max = 1.5776
Field T min = 265.019 max = 329.573
Time = 1996

BiCGStab:  Solving for Urelx, Initial residual = 3.28947e-05, Final residual = 6.1378e-11, No Iterations 2
BiCGStab:  Solving for Urely, Initial residual = 0.000529389, Final residual = 5.67476e-09, No Iterations 2
BiCGStab:  Solving for Urelz, Initial residual = 0.00147562, Final residual = 8.49795e-09, No Iterations 2
BiCGStab:  Solving for p, Initial residual = 0.000694648, Final residual = 5.04379e-06, No Iterations 20
time step continuity errors : sum local = 3.21601e-05, global = 7.6671e-06, cumulative = -0.260582
BiCGStab:  Solving for p, Initial residual = 0.000689218, Final residual = 6.4719e-06, No Iterations 20
time step continuity errors : sum local = 2.2534e-05, global = 3.14823e-06, cumulative = -0.260579
BiCGStab:  Solving for i, Initial residual = 7.85136e-06, Final residual = 2.38912e-10, No Iterations 1
BiCGStab:  Solving for epsilon, Initial residual = 3.93457e-06, Final residual = 1.34331e-09, No Iterations 1
BiCGStab:  Solving for k, Initial residual = 7.37911e-06, Final residual = 6.38693e-09, No Iterations 1
ExecutionTime = 384.44 s  ClockTime = 384 s

Flux divergence min = 1.63278e-09 max = 2.58785 average: 0.0164632
Mach number min = 0.051105 max = 0.858489
Field Urel magnitude min = 0 max = 267.38
Field p min = 76786.2 max = 135371
Field rho min = 0.900748 max = 1.5776
Field T min = 265.018 max = 329.574
Time = 1997

BiCGStab:  Solving for Urelx, Initial residual = 3.27381e-05, Final residual = 6.10976e-11, No Iterations 2
BiCGStab:  Solving for Urely, Initial residual = 0.000529387, Final residual = 5.67489e-09, No Iterations 2
BiCGStab:  Solving for Urelz, Initial residual = 0.00147562, Final residual = 8.49809e-09, No Iterations 2
BiCGStab:  Solving for p, Initial residual = 0.000694562, Final residual = 5.0469e-06, No Iterations 20
time step continuity errors : sum local = 3.21494e-05, global = 7.64319e-06, cumulative = -0.260571
BiCGStab:  Solving for p, Initial residual = 0.00068916, Final residual = 6.47043e-06, No Iterations 20
time step continuity errors : sum local = 2.25243e-05, global = 3.12161e-06, cumulative = -0.260568
BiCGStab:  Solving for i, Initial residual = 7.82108e-06, Final residual = 2.36839e-10, No Iterations 1
BiCGStab:  Solving for epsilon, Initial residual = 3.9164e-06, Final residual = 1.3371e-09, No Iterations 1
BiCGStab:  Solving for k, Initial residual = 7.34633e-06, Final residual = 6.35934e-09, No Iterations 1
ExecutionTime = 384.62 s  ClockTime = 384 s

Flux divergence min = 9.80576e-10 max = 2.58749 average: 0.0164603
Mach number min = 0.0511056 max = 0.858494
Field Urel magnitude min = 0 max = 267.382
Field p min = 76785.7 max = 135371
Field rho min = 0.900744 max = 1.5776
Field T min = 265.018 max = 329.575
Time = 1998

BiCGStab:  Solving for Urelx, Initial residual = 3.2582e-05, Final residual = 6.08183e-11, No Iterations 2
BiCGStab:  Solving for Urely, Initial residual = 0.000529386, Final residual = 5.67502e-09, No Iterations 2
BiCGStab:  Solving for Urelz, Initial residual = 0.00147563, Final residual = 8.49822e-09, No Iterations 2
BiCGStab:  Solving for p, Initial residual = 0.000694478, Final residual = 5.05001e-06, No Iterations 20
time step continuity errors : sum local = 3.21388e-05, global = 7.61935e-06, cumulative = -0.26056
BiCGStab:  Solving for p, Initial residual = 0.000689102, Final residual = 6.46894e-06, No Iterations 20
time step continuity errors : sum local = 2.25146e-05, global = 3.09511e-06, cumulative = -0.260557
BiCGStab:  Solving for i, Initial residual = 7.79102e-06, Final residual = 2.34779e-10, No Iterations 1
BiCGStab:  Solving for epsilon, Initial residual = 3.89829e-06, Final residual = 1.33092e-09, No Iterations 1
BiCGStab:  Solving for k, Initial residual = 7.31366e-06, Final residual = 6.33184e-09, No Iterations 1
ExecutionTime = 384.8 s  ClockTime = 384 s

Flux divergence min = 7.94341e-09 max = 2.58712 average: 0.0164573
Mach number min = 0.0511062 max = 0.858499
Field Urel magnitude min = 0 max = 267.383
Field p min = 76785.3 max = 135371
Field rho min = 0.90074 max = 1.5776
Field T min = 265.018 max = 329.575
Time = 1999

BiCGStab:  Solving for Urelx, Initial residual = 3.24266e-05, Final residual = 6.054e-11, No Iterations 2
BiCGStab:  Solving for Urely, Initial residual = 0.000529384, Final residual = 5.67515e-09, No Iterations 2
BiCGStab:  Solving for Urelz, Initial residual = 0.00147563, Final residual = 8.49835e-09, No Iterations 2
BiCGStab:  Solving for p, Initial residual = 0.000694393, Final residual = 5.05312e-06, No Iterations 20
time step continuity errors : sum local = 3.21283e-05, global = 7.59556e-06, cumulative = -0.260549
BiCGStab:  Solving for p, Initial residual = 0.000689045, Final residual = 6.46742e-06, No Iterations 20
time step continuity errors : sum local = 2.2505e-05, global = 3.06874e-06, cumulative = -0.260546
BiCGStab:  Solving for i, Initial residual = 7.76119e-06, Final residual = 2.32725e-10, No Iterations 1
BiCGStab:  Solving for epsilon, Initial residual = 3.88025e-06, Final residual = 1.32475e-09, No Iterations 1
BiCGStab:  Solving for k, Initial residual = 7.2811e-06, Final residual = 6.30443e-09, No Iterations 1
ExecutionTime = 384.97 s  ClockTime = 385 s

Flux divergence min = 4.77003e-10 max = 2.58676 average: 0.0164543
Mach number min = 0.0511068 max = 0.858504
Field Urel magnitude min = 0 max = 267.385
Field p min = 76784.9 max = 135371
Field rho min = 0.900737 max = 1.5776
Field T min = 265.017 max = 329.576
Time = 2000

BiCGStab:  Solving for Urelx, Initial residual = 3.22718e-05, Final residual = 6.02627e-11, No Iterations 2
BiCGStab:  Solving for Urely, Initial residual = 0.000529383, Final residual = 5.67528e-09, No Iterations 2
BiCGStab:  Solving for Urelz, Initial residual = 0.00147564, Final residual = 8.49848e-09, No Iterations 2
BiCGStab:  Solving for p, Initial residual = 0.000694309, Final residual = 5.05624e-06, No Iterations 20
time step continuity errors : sum local = 3.21178e-05, global = 7.57185e-06, cumulative = -0.260539
BiCGStab:  Solving for p, Initial residual = 0.000688988, Final residual = 6.46586e-06, No Iterations 20
time step continuity errors : sum local = 2.24955e-05, global = 3.0425e-06, cumulative = -0.260536
BiCGStab:  Solving for i, Initial residual = 7.73158e-06, Final residual = 2.30676e-10, No Iterations 1
BiCGStab:  Solving for epsilon, Initial residual = 3.86226e-06, Final residual = 1.31861e-09, No Iterations 1
BiCGStab:  Solving for k, Initial residual = 7.24863e-06, Final residual = 6.27709e-09, No Iterations 1
ExecutionTime = 385.7 s  ClockTime = 385 s

Flux divergence min = 2.3276e-09 max = 2.58639 average: 0.0164511
Writing divFlux field
Mach number min = 0.0511074 max = 0.858509
Writing Mach number field
Field Urel magnitude min = 0 max = 267.386
Field p min = 76784.4 max = 135371
Field rho min = 0.900733 max = 1.5776
Field T min = 265.017 max = 329.576
End

