/*---------------------------------------------------------------------------*\
  =========                 |
  \\      /  F ield         | OpenFOAM: The Open Source CFD Toolbox
   \\    /   O peration     | Website:  https://openfoam.org
    \\  /    A nd           | Version:  6
     \\/     M anipulation  |
\*---------------------------------------------------------------------------*/
Build  : 6-6257b17a4cf8
Exec   : simpleFoam
Date   : Mar 06 2019
Time   : 11:04:55
Host   : "0d69d2294da6"
PID    : 2352
I/O    : uncollated
Case   : /home/openfoam/OpenFOAM/MRF/mixerVessel2D
nProcs : 1
sigFpe : Enabling floating point exception trapping (FOAM_SIGFPE).
fileModificationChecking : Monitoring run-time modified files using timeStampMaster (fileModificationSkew 10)
allowSystemOperations : Allowing user-supplied system call operations

// * * * * * * * * * * * * * * * * * * * * * * * * * * * * * * * * * * * * * //
Create time

Create mesh for time = 0


SIMPLE: No convergence criteria found

Reading field p

Reading field U

Reading/calculating face flux field phi

Selecting incompressible transport model Newtonian
Selecting turbulence model type RAS
Selecting RAS turbulence model kEpsilon
RAS
{
    RASModel        kEpsilon;
    turbulence      on;
    printCoeffs     on;
    Cmu             0.09;
    C1              1.44;
    C2              1.92;
    C3              0;
    sigmak          1;
    sigmaEps        1.3;
}

Creating MRF zone list from MRFProperties
    creating MRF zone: MRF1
No finite volume options present

Starting time loop

Time = 1

smoothSolver:  Solving for Ux, Initial residual = 1, Final residual = 0.0489781, No Iterations 2
smoothSolver:  Solving for Uy, Initial residual = 1, Final residual = 0.0489897, No Iterations 2
GAMG:  Solving for p, Initial residual = 1, Final residual = 0.0278725, No Iterations 5
time step continuity errors : sum local = 0.882788, global = -1.05746e-16, cumulative = -1.05746e-16
smoothSolver:  Solving for epsilon, Initial residual = 0.0504837, Final residual = 0.00289588, No Iterations 2
smoothSolver:  Solving for k, Initial residual = 1, Final residual = 0.0879318, No Iterations 2
ExecutionTime = 0.26 s  ClockTime = 1 s

Time = 2

smoothSolver:  Solving for Ux, Initial residual = 0.481089, Final residual = 0.0277579, No Iterations 2
smoothSolver:  Solving for Uy, Initial residual = 0.480567, Final residual = 0.0273984, No Iterations 2
GAMG:  Solving for p, Initial residual = 0.521921, Final residual = 0.0128661, No Iterations 3
time step continuity errors : sum local = 1.60908, global = 2.62697e-16, cumulative = 1.56951e-16
smoothSolver:  Solving for epsilon, Initial residual = 0.0454774, Final residual = 0.00248884, No Iterations 2
smoothSolver:  Solving for k, Initial residual = 0.695334, Final residual = 0.0480342, No Iterations 2
ExecutionTime = 0.28 s  ClockTime = 1 s

Time = 3

smoothSolver:  Solving for Ux, Initial residual = 0.187486, Final residual = 0.0106851, No Iterations 2
smoothSolver:  Solving for Uy, Initial residual = 0.186674, Final residual = 0.0105571, No Iterations 2
GAMG:  Solving for p, Initial residual = 0.808913, Final residual = 0.0201137, No Iterations 4
time step continuity errors : sum local = 1.5526, global = 5.06951e-16, cumulative = 6.63902e-16
smoothSolver:  Solving for epsilon, Initial residual = 0.0696916, Final residual = 0.00396408, No Iterations 2
smoothSolver:  Solving for k, Initial residual = 0.347959, Final residual = 0.0237978, No Iterations 2
ExecutionTime = 0.29 s  ClockTime = 1 s

Time = 4

smoothSolver:  Solving for Ux, Initial residual = 0.102536, Final residual = 0.00588192, No Iterations 2
smoothSolver:  Solving for Uy, Initial residual = 0.102982, Final residual = 0.00589624, No Iterations 2
GAMG:  Solving for p, Initial residual = 0.720393, Final residual = 0.0251003, No Iterations 4
time step continuity errors : sum local = 1.63564, global = 4.60269e-16, cumulative = 1.12417e-15
smoothSolver:  Solving for epsilon, Initial residual = 0.069364, Final residual = 0.00399183, No Iterations 2
smoothSolver:  Solving for k, Initial residual = 0.206401, Final residual = 0.013531, No Iterations 2
ExecutionTime = 0.31 s  ClockTime = 1 s

Time = 5

smoothSolver:  Solving for Ux, Initial residual = 0.0595696, Final residual = 0.00336517, No Iterations 2
smoothSolver:  Solving for Uy, Initial residual = 0.0608628, Final residual = 0.003458, No Iterations 2
GAMG:  Solving for p, Initial residual = 0.526533, Final residual = 0.0162802, No Iterations 4
time step continuity errors : sum local = 0.987091, global = -7.26985e-16, cumulative = 3.97186e-16
smoothSolver:  Solving for epsilon, Initial residual = 0.0574929, Final residual = 0.00343985, No Iterations 2
smoothSolver:  Solving for k, Initial residual = 0.130729, Final residual = 0.00898765, No Iterations 2
ExecutionTime = 0.33 s  ClockTime = 1 s

Time = 6

smoothSolver:  Solving for Ux, Initial residual = 0.0766088, Final residual = 0.00467285, No Iterations 2
smoothSolver:  Solving for Uy, Initial residual = 0.0772232, Final residual = 0.00473364, No Iterations 2
GAMG:  Solving for p, Initial residual = 0.564001, Final residual = 0.0145919, No Iterations 3
time step continuity errors : sum local = 0.691727, global = 1.16672e-15, cumulative = 1.56391e-15
smoothSolver:  Solving for epsilon, Initial residual = 0.0466163, Final residual = 0.0028492, No Iterations 2
smoothSolver:  Solving for k, Initial residual = 0.0880048, Final residual = 0.00632124, No Iterations 2
ExecutionTime = 0.35 s  ClockTime = 1 s

Time = 7

smoothSolver:  Solving for Ux, Initial residual = 0.0785775, Final residual = 0.00450525, No Iterations 2
smoothSolver:  Solving for Uy, Initial residual = 0.078691, Final residual = 0.0045221, No Iterations 2
GAMG:  Solving for p, Initial residual = 0.596064, Final residual = 0.0128392, No Iterations 4
time step continuity errors : sum local = 0.582681, global = 6.00225e-16, cumulative = 2.16414e-15
smoothSolver:  Solving for epsilon, Initial residual = 0.0366914, Final residual = 0.00222621, No Iterations 2
smoothSolver:  Solving for k, Initial residual = 0.06355, Final residual = 0.00448944, No Iterations 2
ExecutionTime = 0.36 s  ClockTime = 1 s

Time = 8

smoothSolver:  Solving for Ux, Initial residual = 0.0535751, Final residual = 0.00277378, No Iterations 2
smoothSolver:  Solving for Uy, Initial residual = 0.0528034, Final residual = 0.00271425, No Iterations 2
GAMG:  Solving for p, Initial residual = 0.58083, Final residual = 0.0165905, No Iterations 4
time step continuity errors : sum local = 0.67712, global = -2.02666e-16, cumulative = 1.96147e-15
smoothSolver:  Solving for epsilon, Initial residual = 0.0277585, Final residual = 0.00167906, No Iterations 2
smoothSolver:  Solving for k, Initial residual = 0.0484837, Final residual = 0.00338115, No Iterations 2
ExecutionTime = 0.38 s  ClockTime = 1 s

Time = 9

smoothSolver:  Solving for Ux, Initial residual = 0.0385874, Final residual = 0.00220242, No Iterations 2
smoothSolver:  Solving for Uy, Initial residual = 0.03759, Final residual = 0.00214204, No Iterations 2
GAMG:  Solving for p, Initial residual = 0.507028, Final residual = 0.0123873, No Iterations 4
time step continuity errors : sum local = 0.445166, global = 1.00409e-15, cumulative = 2.96556e-15
smoothSolver:  Solving for epsilon, Initial residual = 0.0226693, Final residual = 0.00129201, No Iterations 2
smoothSolver:  Solving for k, Initial residual = 0.0425377, Final residual = 0.00281328, No Iterations 2
ExecutionTime = 0.4 s  ClockTime = 1 s

Time = 10

smoothSolver:  Solving for Ux, Initial residual = 0.0425247, Final residual = 0.00302441, No Iterations 2
smoothSolver:  Solving for Uy, Initial residual = 0.0427293, Final residual = 0.00302226, No Iterations 2
GAMG:  Solving for p, Initial residual = 0.408951, Final residual = 0.0110028, No Iterations 3
time step continuity errors : sum local = 0.380397, global = 2.78814e-16, cumulative = 3.24437e-15
smoothSolver:  Solving for epsilon, Initial residual = 0.0190141, Final residual = 0.000995037, No Iterations 2
smoothSolver:  Solving for k, Initial residual = 0.0412134, Final residual = 0.00254176, No Iterations 2
ExecutionTime = 0.41 s  ClockTime = 1 s

Time = 11

smoothSolver:  Solving for Ux, Initial residual = 0.0402127, Final residual = 0.0028758, No Iterations 2
smoothSolver:  Solving for Uy, Initial residual = 0.040744, Final residual = 0.0029102, No Iterations 2
GAMG:  Solving for p, Initial residual = 0.398549, Final residual = 0.016733, No Iterations 3
time step continuity errors : sum local = 0.575128, global = -3.12156e-16, cumulative = 2.93221e-15
smoothSolver:  Solving for epsilon, Initial residual = 0.0167838, Final residual = 0.000799473, No Iterations 2
smoothSolver:  Solving for k, Initial residual = 0.0413627, Final residual = 0.00247643, No Iterations 2
ExecutionTime = 0.43 s  ClockTime = 1 s

Time = 12

smoothSolver:  Solving for Ux, Initial residual = 0.0310084, Final residual = 0.00209303, No Iterations 2
smoothSolver:  Solving for Uy, Initial residual = 0.0316867, Final residual = 0.0021511, No Iterations 2
GAMG:  Solving for p, Initial residual = 0.351919, Final residual = 0.00952652, No Iterations 4
time step continuity errors : sum local = 0.314745, global = 8.43161e-17, cumulative = 3.01653e-15
smoothSolver:  Solving for epsilon, Initial residual = 0.0153903, Final residual = 0.000737205, No Iterations 2
smoothSolver:  Solving for k, Initial residual = 0.0397734, Final residual = 0.00246043, No Iterations 2
ExecutionTime = 0.45 s  ClockTime = 1 s

Time = 13

smoothSolver:  Solving for Ux, Initial residual = 0.0227392, Final residual = 0.00141948, No Iterations 2
smoothSolver:  Solving for Uy, Initial residual = 0.0239678, Final residual = 0.0015366, No Iterations 2
GAMG:  Solving for p, Initial residual = 0.304859, Final residual = 0.00710445, No Iterations 4
time step continuity errors : sum local = 0.224878, global = -4.0542e-16, cumulative = 2.61111e-15
smoothSolver:  Solving for epsilon, Initial residual = 0.0151751, Final residual = 0.000805037, No Iterations 2
smoothSolver:  Solving for k, Initial residual = 0.0371466, Final residual = 0.00241008, No Iterations 2
ExecutionTime = 0.47 s  ClockTime = 1 s

Time = 14

smoothSolver:  Solving for Ux, Initial residual = 0.0243435, Final residual = 0.00148876, No Iterations 2
smoothSolver:  Solving for Uy, Initial residual = 0.0253552, Final residual = 0.00157233, No Iterations 2
GAMG:  Solving for p, Initial residual = 0.254395, Final residual = 0.00804042, No Iterations 3
time step continuity errors : sum local = 0.243649, global = 4.53111e-16, cumulative = 3.06422e-15
smoothSolver:  Solving for epsilon, Initial residual = 0.0149175, Final residual = 0.000848, No Iterations 2
smoothSolver:  Solving for k, Initial residual = 0.0343769, Final residual = 0.00233661, No Iterations 2
ExecutionTime = 0.49 s  ClockTime = 2 s

Time = 15

smoothSolver:  Solving for Ux, Initial residual = 0.0251163, Final residual = 0.00152693, No Iterations 2
smoothSolver:  Solving for Uy, Initial residual = 0.0252036, Final residual = 0.00152993, No Iterations 2
GAMG:  Solving for p, Initial residual = 0.219668, Final residual = 0.00786239, No Iterations 3
time step continuity errors : sum local = 0.232421, global = -4.11744e-16, cumulative = 2.65248e-15
smoothSolver:  Solving for epsilon, Initial residual = 0.0147717, Final residual = 0.000873148, No Iterations 2
smoothSolver:  Solving for k, Initial residual = 0.0323062, Final residual = 0.00227208, No Iterations 2
ExecutionTime = 0.51 s  ClockTime = 2 s

Time = 16

smoothSolver:  Solving for Ux, Initial residual = 0.0224107, Final residual = 0.00134018, No Iterations 2
smoothSolver:  Solving for Uy, Initial residual = 0.0218093, Final residual = 0.00127414, No Iterations 2
GAMG:  Solving for p, Initial residual = 0.192982, Final residual = 0.00450491, No Iterations 4
time step continuity errors : sum local = 0.132629, global = 3.14088e-16, cumulative = 2.96657e-15
smoothSolver:  Solving for epsilon, Initial residual = 0.0148612, Final residual = 0.000907762, No Iterations 2
smoothSolver:  Solving for k, Initial residual = 0.0311105, Final residual = 0.00224381, No Iterations 2
ExecutionTime = 0.53 s  ClockTime = 2 s

Time = 17

smoothSolver:  Solving for Ux, Initial residual = 0.0195753, Final residual = 0.00124587, No Iterations 2
smoothSolver:  Solving for Uy, Initial residual = 0.0190198, Final residual = 0.00118674, No Iterations 2
GAMG:  Solving for p, Initial residual = 0.173334, Final residual = 0.00833529, No Iterations 3
time step continuity errors : sum local = 0.243194, global = 2.65513e-16, cumulative = 3.23208e-15
smoothSolver:  Solving for epsilon, Initial residual = 0.0151097, Final residual = 0.000952527, No Iterations 2
smoothSolver:  Solving for k, Initial residual = 0.0301806, Final residual = 0.00223745, No Iterations 2
ExecutionTime = 0.54 s  ClockTime = 2 s

Time = 18

smoothSolver:  Solving for Ux, Initial residual = 0.0186371, Final residual = 0.00132095, No Iterations 2
smoothSolver:  Solving for Uy, Initial residual = 0.0182271, Final residual = 0.00127627, No Iterations 2
GAMG:  Solving for p, Initial residual = 0.153841, Final residual = 0.0048822, No Iterations 3
time step continuity errors : sum local = 0.140001, global = -1.88306e-16, cumulative = 3.04377e-15
smoothSolver:  Solving for epsilon, Initial residual = 0.0151363, Final residual = 0.000984181, No Iterations 2
smoothSolver:  Solving for k, Initial residual = 0.0295217, Final residual = 0.0022321, No Iterations 2
ExecutionTime = 0.56 s  ClockTime = 2 s

Time = 19

smoothSolver:  Solving for Ux, Initial residual = 0.0175734, Final residual = 0.0013102, No Iterations 2
smoothSolver:  Solving for Uy, Initial residual = 0.0173729, Final residual = 0.00128614, No Iterations 2
GAMG:  Solving for p, Initial residual = 0.13669, Final residual = 0.00321586, No Iterations 3
time step continuity errors : sum local = 0.0901231, global = -2.96687e-16, cumulative = 2.74709e-15
smoothSolver:  Solving for epsilon, Initial residual = 0.0152556, Final residual = 0.00101451, No Iterations 2
smoothSolver:  Solving for k, Initial residual = 0.0289247, Final residual = 0.00221862, No Iterations 2
ExecutionTime = 0.57 s  ClockTime = 2 s

Time = 20

smoothSolver:  Solving for Ux, Initial residual = 0.0159269, Final residual = 0.00118965, No Iterations 2
smoothSolver:  Solving for Uy, Initial residual = 0.0159088, Final residual = 0.00118344, No Iterations 2
GAMG:  Solving for p, Initial residual = 0.121055, Final residual = 0.00444539, No Iterations 3
time step continuity errors : sum local = 0.121187, global = 8.21555e-16, cumulative = 3.56864e-15
smoothSolver:  Solving for epsilon, Initial residual = 0.0150368, Final residual = 0.00104396, No Iterations 2
smoothSolver:  Solving for k, Initial residual = 0.0281226, Final residual = 0.00218877, No Iterations 2
ExecutionTime = 0.59 s  ClockTime = 2 s

Time = 21

smoothSolver:  Solving for Ux, Initial residual = 0.014425, Final residual = 0.00106133, No Iterations 2
smoothSolver:  Solving for Uy, Initial residual = 0.0146045, Final residual = 0.00107282, No Iterations 2
GAMG:  Solving for p, Initial residual = 0.106194, Final residual = 0.00469493, No Iterations 3
time step continuity errors : sum local = 0.128289, global = 8.61955e-16, cumulative = 4.4306e-15
smoothSolver:  Solving for epsilon, Initial residual = 0.0149432, Final residual = 0.00103718, No Iterations 2
smoothSolver:  Solving for k, Initial residual = 0.0271676, Final residual = 0.00212608, No Iterations 2
ExecutionTime = 0.61 s  ClockTime = 2 s

Time = 22

smoothSolver:  Solving for Ux, Initial residual = 0.0138405, Final residual = 0.000996204, No Iterations 2
smoothSolver:  Solving for Uy, Initial residual = 0.0142094, Final residual = 0.00102385, No Iterations 2
GAMG:  Solving for p, Initial residual = 0.0968188, Final residual = 0.00367005, No Iterations 3
time step continuity errors : sum local = 0.101087, global = -2.40652e-16, cumulative = 4.18994e-15
smoothSolver:  Solving for epsilon, Initial residual = 0.0147786, Final residual = 0.00104278, No Iterations 2
smoothSolver:  Solving for k, Initial residual = 0.0260213, Final residual = 0.00205894, No Iterations 2
ExecutionTime = 0.62 s  ClockTime = 2 s

Time = 23

smoothSolver:  Solving for Ux, Initial residual = 0.0136251, Final residual = 0.000962652, No Iterations 2
smoothSolver:  Solving for Uy, Initial residual = 0.0139065, Final residual = 0.000988996, No Iterations 2
GAMG:  Solving for p, Initial residual = 0.0928812, Final residual = 0.00264649, No Iterations 3
time step continuity errors : sum local = 0.0714015, global = 3.84692e-17, cumulative = 4.22841e-15
smoothSolver:  Solving for epsilon, Initial residual = 0.0145813, Final residual = 0.00101383, No Iterations 2
smoothSolver:  Solving for k, Initial residual = 0.0249227, Final residual = 0.00197471, No Iterations 2
ExecutionTime = 0.64 s  ClockTime = 2 s

Time = 24

smoothSolver:  Solving for Ux, Initial residual = 0.0132783, Final residual = 0.000940342, No Iterations 2
smoothSolver:  Solving for Uy, Initial residual = 0.0134081, Final residual = 0.000955536, No Iterations 2
GAMG:  Solving for p, Initial residual = 0.0882324, Final residual = 0.00219107, No Iterations 3
time step continuity errors : sum local = 0.058066, global = 1.11895e-16, cumulative = 4.34031e-15
smoothSolver:  Solving for epsilon, Initial residual = 0.0144297, Final residual = 0.00101358, No Iterations 2
smoothSolver:  Solving for k, Initial residual = 0.0240576, Final residual = 0.00190756, No Iterations 2
ExecutionTime = 0.65 s  ClockTime = 2 s

Time = 25

smoothSolver:  Solving for Ux, Initial residual = 0.0127054, Final residual = 0.000916509, No Iterations 2
smoothSolver:  Solving for Uy, Initial residual = 0.0127385, Final residual = 0.000922188, No Iterations 2
GAMG:  Solving for p, Initial residual = 0.08314, Final residual = 0.00245341, No Iterations 3
time step continuity errors : sum local = 0.0669265, global = -4.27904e-16, cumulative = 3.9124e-15
smoothSolver:  Solving for epsilon, Initial residual = 0.0142276, Final residual = 0.000990168, No Iterations 2
smoothSolver:  Solving for k, Initial residual = 0.0232005, Final residual = 0.00184998, No Iterations 2
ExecutionTime = 0.67 s  ClockTime = 2 s

Time = 26

smoothSolver:  Solving for Ux, Initial residual = 0.0121524, Final residual = 0.000895076, No Iterations 2
smoothSolver:  Solving for Uy, Initial residual = 0.012078, Final residual = 0.000889747, No Iterations 2
GAMG:  Solving for p, Initial residual = 0.0780246, Final residual = 0.00206702, No Iterations 3
time step continuity errors : sum local = 0.0574993, global = 2.17454e-16, cumulative = 4.12986e-15
smoothSolver:  Solving for epsilon, Initial residual = 0.014142, Final residual = 0.000993548, No Iterations 2
smoothSolver:  Solving for k, Initial residual = 0.0223834, Final residual = 0.00179933, No Iterations 2
ExecutionTime = 0.69 s  ClockTime = 2 s

Time = 27

smoothSolver:  Solving for Ux, Initial residual = 0.0116232, Final residual = 0.000880339, No Iterations 2
smoothSolver:  Solving for Uy, Initial residual = 0.0114665, Final residual = 0.000865475, No Iterations 2
GAMG:  Solving for p, Initial residual = 0.071856, Final residual = 0.00144093, No Iterations 3
time step continuity errors : sum local = 0.0399571, global = -2.25897e-16, cumulative = 3.90396e-15
smoothSolver:  Solving for epsilon, Initial residual = 0.0141766, Final residual = 0.00097604, No Iterations 2
smoothSolver:  Solving for k, Initial residual = 0.0217239, Final residual = 0.00174675, No Iterations 2
ExecutionTime = 0.7 s  ClockTime = 2 s

Time = 28

smoothSolver:  Solving for Ux, Initial residual = 0.011136, Final residual = 0.000859373, No Iterations 2
smoothSolver:  Solving for Uy, Initial residual = 0.0109583, Final residual = 0.000842748, No Iterations 2
GAMG:  Solving for p, Initial residual = 0.0664165, Final residual = 0.00323987, No Iterations 2
time step continuity errors : sum local = 0.0910832, global = 5.02548e-17, cumulative = 3.95422e-15
smoothSolver:  Solving for epsilon, Initial residual = 0.0140415, Final residual = 0.000950654, No Iterations 2
smoothSolver:  Solving for k, Initial residual = 0.0210526, Final residual = 0.00170835, No Iterations 2
ExecutionTime = 0.72 s  ClockTime = 2 s

Time = 29

smoothSolver:  Solving for Ux, Initial residual = 0.0107394, Final residual = 0.000837228, No Iterations 2
smoothSolver:  Solving for Uy, Initial residual = 0.0105925, Final residual = 0.000821963, No Iterations 2
GAMG:  Solving for p, Initial residual = 0.0629591, Final residual = 0.00139073, No Iterations 3
time step continuity errors : sum local = 0.0395266, global = 3.60188e-16, cumulative = 4.3144e-15
smoothSolver:  Solving for epsilon, Initial residual = 0.0139073, Final residual = 0.000945249, No Iterations 2
smoothSolver:  Solving for k, Initial residual = 0.0204134, Final residual = 0.00164597, No Iterations 2
ExecutionTime = 0.73 s  ClockTime = 2 s

Time = 30

smoothSolver:  Solving for Ux, Initial residual = 0.0103952, Final residual = 0.000806085, No Iterations 2
smoothSolver:  Solving for Uy, Initial residual = 0.0103243, Final residual = 0.000800815, No Iterations 2
GAMG:  Solving for p, Initial residual = 0.0607714, Final residual = 0.00146798, No Iterations 3
time step continuity errors : sum local = 0.0423099, global = -5.79673e-17, cumulative = 4.25644e-15
smoothSolver:  Solving for epsilon, Initial residual = 0.0138613, Final residual = 0.000929234, No Iterations 2
smoothSolver:  Solving for k, Initial residual = 0.0197996, Final residual = 0.00158679, No Iterations 2
ExecutionTime = 0.75 s  ClockTime = 2 s

Time = 31

smoothSolver:  Solving for Ux, Initial residual = 0.0101127, Final residual = 0.000777571, No Iterations 2
smoothSolver:  Solving for Uy, Initial residual = 0.0101309, Final residual = 0.000780839, No Iterations 2
GAMG:  Solving for p, Initial residual = 0.0580384, Final residual = 0.00133009, No Iterations 3
time step continuity errors : sum local = 0.038149, global = -7.69385e-16, cumulative = 3.48705e-15
smoothSolver:  Solving for epsilon, Initial residual = 0.0136496, Final residual = 0.000911033, No Iterations 2
smoothSolver:  Solving for k, Initial residual = 0.0192092, Final residual = 0.0015391, No Iterations 2
ExecutionTime = 0.76 s  ClockTime = 2 s

Time = 32

smoothSolver:  Solving for Ux, Initial residual = 0.0098515, Final residual = 0.000753454, No Iterations 2
smoothSolver:  Solving for Uy, Initial residual = 0.00992029, Final residual = 0.000761858, No Iterations 2
GAMG:  Solving for p, Initial residual = 0.0559542, Final residual = 0.0011083, No Iterations 3
time step continuity errors : sum local = 0.0321519, global = -7.52873e-16, cumulative = 2.73418e-15
smoothSolver:  Solving for epsilon, Initial residual = 0.013365, Final residual = 0.000898742, No Iterations 2
smoothSolver:  Solving for k, Initial residual = 0.0187032, Final residual = 0.00148855, No Iterations 2
ExecutionTime = 0.78 s  ClockTime = 2 s

Time = 33

smoothSolver:  Solving for Ux, Initial residual = 0.00959926, Final residual = 0.000734143, No Iterations 2
smoothSolver:  Solving for Uy, Initial residual = 0.00966929, Final residual = 0.000743608, No Iterations 2
GAMG:  Solving for p, Initial residual = 0.0536583, Final residual = 0.00248235, No Iterations 2
time step continuity errors : sum local = 0.0730037, global = 4.8271e-16, cumulative = 3.21689e-15
smoothSolver:  Solving for epsilon, Initial residual = 0.0132157, Final residual = 0.000882313, No Iterations 2
smoothSolver:  Solving for k, Initial residual = 0.0181201, Final residual = 0.00143715, No Iterations 2
ExecutionTime = 0.79 s  ClockTime = 2 s

Time = 34

smoothSolver:  Solving for Ux, Initial residual = 0.00934473, Final residual = 0.000718206, No Iterations 2
smoothSolver:  Solving for Uy, Initial residual = 0.00940861, Final residual = 0.000726051, No Iterations 2
GAMG:  Solving for p, Initial residual = 0.0536663, Final residual = 0.00263113, No Iterations 2
time step continuity errors : sum local = 0.0789712, global = 1.02514e-15, cumulative = 4.24203e-15
smoothSolver:  Solving for epsilon, Initial residual = 0.0129719, Final residual = 0.000876909, No Iterations 2
smoothSolver:  Solving for k, Initial residual = 0.0175217, Final residual = 0.00139391, No Iterations 2
ExecutionTime = 0.8 s  ClockTime = 2 s

Time = 35

smoothSolver:  Solving for Ux, Initial residual = 0.0090931, Final residual = 0.00070427, No Iterations 2
smoothSolver:  Solving for Uy, Initial residual = 0.00913282, Final residual = 0.000708299, No Iterations 2
GAMG:  Solving for p, Initial residual = 0.0531567, Final residual = 0.000957523, No Iterations 3
time step continuity errors : sum local = 0.0300645, global = -1.92172e-16, cumulative = 4.04986e-15
smoothSolver:  Solving for epsilon, Initial residual = 0.0127919, Final residual = 0.000856673, No Iterations 2
smoothSolver:  Solving for k, Initial residual = 0.0169523, Final residual = 0.00134304, No Iterations 2
ExecutionTime = 0.82 s  ClockTime = 2 s

Time = 36

smoothSolver:  Solving for Ux, Initial residual = 0.00890181, Final residual = 0.000694405, No Iterations 2
smoothSolver:  Solving for Uy, Initial residual = 0.00888263, Final residual = 0.000691248, No Iterations 2
GAMG:  Solving for p, Initial residual = 0.0514838, Final residual = 0.00246035, No Iterations 2
time step continuity errors : sum local = 0.078067, global = -5.62107e-16, cumulative = 3.48775e-15
smoothSolver:  Solving for epsilon, Initial residual = 0.0124679, Final residual = 0.000843633, No Iterations 2
smoothSolver:  Solving for k, Initial residual = 0.0163293, Final residual = 0.00129582, No Iterations 2
ExecutionTime = 0.83 s  ClockTime = 2 s

Time = 37

smoothSolver:  Solving for Ux, Initial residual = 0.00870836, Final residual = 0.00068146, No Iterations 2
smoothSolver:  Solving for Uy, Initial residual = 0.00865543, Final residual = 0.000674882, No Iterations 2
GAMG:  Solving for p, Initial residual = 0.0500417, Final residual = 0.00246618, No Iterations 2
time step continuity errors : sum local = 0.0805924, global = -3.67829e-16, cumulative = 3.11992e-15
smoothSolver:  Solving for epsilon, Initial residual = 0.0121588, Final residual = 0.00081534, No Iterations 2
smoothSolver:  Solving for k, Initial residual = 0.015695, Final residual = 0.00124358, No Iterations 2
ExecutionTime = 0.85 s  ClockTime = 2 s

Time = 38

smoothSolver:  Solving for Ux, Initial residual = 0.00854411, Final residual = 0.000670002, No Iterations 2
smoothSolver:  Solving for Uy, Initial residual = 0.00847465, Final residual = 0.000662356, No Iterations 2
GAMG:  Solving for p, Initial residual = 0.0490828, Final residual = 0.00096717, No Iterations 3
time step continuity errors : sum local = 0.0317008, global = 7.83262e-16, cumulative = 3.90318e-15
smoothSolver:  Solving for epsilon, Initial residual = 0.011927, Final residual = 0.000804967, No Iterations 2
smoothSolver:  Solving for k, Initial residual = 0.0150281, Final residual = 0.0012, No Iterations 2
ExecutionTime = 0.86 s  ClockTime = 2 s

Time = 39

smoothSolver:  Solving for Ux, Initial residual = 0.00837994, Final residual = 0.00065801, No Iterations 2
smoothSolver:  Solving for Uy, Initial residual = 0.00832282, Final residual = 0.00065138, No Iterations 2
GAMG:  Solving for p, Initial residual = 0.0480037, Final residual = 0.00222445, No Iterations 2
time step continuity errors : sum local = 0.0725407, global = 2.83862e-16, cumulative = 4.18705e-15
smoothSolver:  Solving for epsilon, Initial residual = 0.0115855, Final residual = 0.000785382, No Iterations 2
smoothSolver:  Solving for k, Initial residual = 0.0143624, Final residual = 0.00114871, No Iterations 2
ExecutionTime = 0.88 s  ClockTime = 3 s

Time = 40

smoothSolver:  Solving for Ux, Initial residual = 0.00821744, Final residual = 0.000646408, No Iterations 2
smoothSolver:  Solving for Uy, Initial residual = 0.0081702, Final residual = 0.000641589, No Iterations 2
GAMG:  Solving for p, Initial residual = 0.0450635, Final residual = 0.00206053, No Iterations 2
time step continuity errors : sum local = 0.0699365, global = 3.88205e-17, cumulative = 4.22587e-15
smoothSolver:  Solving for epsilon, Initial residual = 0.0111896, Final residual = 0.000764953, No Iterations 2
smoothSolver:  Solving for k, Initial residual = 0.0136877, Final residual = 0.00110525, No Iterations 2
ExecutionTime = 0.89 s  ClockTime = 3 s

Time = 41

smoothSolver:  Solving for Ux, Initial residual = 0.00806672, Final residual = 0.000635428, No Iterations 2
smoothSolver:  Solving for Uy, Initial residual = 0.0080405, Final residual = 0.000632939, No Iterations 2
GAMG:  Solving for p, Initial residual = 0.0443702, Final residual = 0.00199131, No Iterations 2
time step continuity errors : sum local = 0.0666403, global = 8.08029e-17, cumulative = 4.30667e-15
smoothSolver:  Solving for epsilon, Initial residual = 0.0107871, Final residual = 0.000746852, No Iterations 2
smoothSolver:  Solving for k, Initial residual = 0.0130295, Final residual = 0.00105375, No Iterations 2
ExecutionTime = 0.9 s  ClockTime = 3 s

Time = 42

smoothSolver:  Solving for Ux, Initial residual = 0.00792055, Final residual = 0.000625159, No Iterations 2
smoothSolver:  Solving for Uy, Initial residual = 0.00790982, Final residual = 0.000624817, No Iterations 2
GAMG:  Solving for p, Initial residual = 0.0429473, Final residual = 0.00194977, No Iterations 2
time step continuity errors : sum local = 0.0653459, global = -2.91418e-16, cumulative = 4.01525e-15
smoothSolver:  Solving for epsilon, Initial residual = 0.0103715, Final residual = 0.000724325, No Iterations 2
smoothSolver:  Solving for k, Initial residual = 0.0123574, Final residual = 0.00101123, No Iterations 2
ExecutionTime = 0.92 s  ClockTime = 3 s

Time = 43

smoothSolver:  Solving for Ux, Initial residual = 0.00777315, Final residual = 0.000616765, No Iterations 2
smoothSolver:  Solving for Uy, Initial residual = 0.00777393, Final residual = 0.000616878, No Iterations 2
GAMG:  Solving for p, Initial residual = 0.0418272, Final residual = 0.00186632, No Iterations 2
time step continuity errors : sum local = 0.0627232, global = 7.20551e-16, cumulative = 4.7358e-15
smoothSolver:  Solving for epsilon, Initial residual = 0.00995922, Final residual = 0.000705237, No Iterations 2
smoothSolver:  Solving for k, Initial residual = 0.0117709, Final residual = 0.000971942, No Iterations 2
ExecutionTime = 0.93 s  ClockTime = 3 s

Time = 44

smoothSolver:  Solving for Ux, Initial residual = 0.007635, Final residual = 0.000608055, No Iterations 2
smoothSolver:  Solving for Uy, Initial residual = 0.0076367, Final residual = 0.000608425, No Iterations 2
GAMG:  Solving for p, Initial residual = 0.0407946, Final residual = 0.00186937, No Iterations 2
time step continuity errors : sum local = 0.0618735, global = -1.55458e-15, cumulative = 3.18122e-15
smoothSolver:  Solving for epsilon, Initial residual = 0.00957753, Final residual = 0.000685523, No Iterations 2
smoothSolver:  Solving for k, Initial residual = 0.0112193, Final residual = 0.000931968, No Iterations 2
ExecutionTime = 0.95 s  ClockTime = 3 s

Time = 45

smoothSolver:  Solving for Ux, Initial residual = 0.00749361, Final residual = 0.000600048, No Iterations 2
smoothSolver:  Solving for Uy, Initial residual = 0.00748468, Final residual = 0.000599127, No Iterations 2
GAMG:  Solving for p, Initial residual = 0.0401736, Final residual = 0.00182574, No Iterations 2
time step continuity errors : sum local = 0.0601647, global = 3.95582e-16, cumulative = 3.5768e-15
smoothSolver:  Solving for epsilon, Initial residual = 0.00917785, Final residual = 0.000659993, No Iterations 2
smoothSolver:  Solving for k, Initial residual = 0.0107199, Final residual = 0.000894558, No Iterations 2
ExecutionTime = 0.96 s  ClockTime = 3 s

Time = 46

smoothSolver:  Solving for Ux, Initial residual = 0.00737055, Final residual = 0.00059269, No Iterations 2
smoothSolver:  Solving for Uy, Initial residual = 0.00735271, Final residual = 0.000590941, No Iterations 2
GAMG:  Solving for p, Initial residual = 0.039769, Final residual = 0.0018767, No Iterations 2
time step continuity errors : sum local = 0.0607771, global = 1.01529e-16, cumulative = 3.67833e-15
smoothSolver:  Solving for epsilon, Initial residual = 0.00876154, Final residual = 0.000634583, No Iterations 2
smoothSolver:  Solving for k, Initial residual = 0.0102625, Final residual = 0.000858699, No Iterations 2
ExecutionTime = 0.98 s  ClockTime = 3 s

Time = 47

smoothSolver:  Solving for Ux, Initial residual = 0.0072572, Final residual = 0.000584499, No Iterations 2
smoothSolver:  Solving for Uy, Initial residual = 0.00723326, Final residual = 0.000581704, No Iterations 2
GAMG:  Solving for p, Initial residual = 0.0396946, Final residual = 0.0019295, No Iterations 2
time step continuity errors : sum local = 0.0621175, global = 1.55932e-15, cumulative = 5.23766e-15
smoothSolver:  Solving for epsilon, Initial residual = 0.00833933, Final residual = 0.000610132, No Iterations 2
smoothSolver:  Solving for k, Initial residual = 0.00982255, Final residual = 0.000821913, No Iterations 2
ExecutionTime = 1 s  ClockTime = 3 s

Time = 48

smoothSolver:  Solving for Ux, Initial residual = 0.00714409, Final residual = 0.000578253, No Iterations 2
smoothSolver:  Solving for Uy, Initial residual = 0.00711593, Final residual = 0.000575448, No Iterations 2
GAMG:  Solving for p, Initial residual = 0.0391431, Final residual = 0.000757626, No Iterations 3
time step continuity errors : sum local = 0.0243622, global = -2.92294e-16, cumulative = 4.94536e-15
smoothSolver:  Solving for epsilon, Initial residual = 0.00794434, Final residual = 0.000591003, No Iterations 2
smoothSolver:  Solving for k, Initial residual = 0.00942371, Final residual = 0.000790334, No Iterations 2
ExecutionTime = 1.01 s  ClockTime = 3 s

Time = 49

smoothSolver:  Solving for Ux, Initial residual = 0.00703441, Final residual = 0.000571983, No Iterations 2
smoothSolver:  Solving for Uy, Initial residual = 0.00700879, Final residual = 0.000568959, No Iterations 2
GAMG:  Solving for p, Initial residual = 0.0388561, Final residual = 0.000722253, No Iterations 3
time step continuity errors : sum local = 0.0229399, global = 4.75683e-16, cumulative = 5.42104e-15
smoothSolver:  Solving for epsilon, Initial residual = 0.00759544, Final residual = 0.000574652, No Iterations 2
smoothSolver:  Solving for k, Initial residual = 0.00910145, Final residual = 0.000763548, No Iterations 2
ExecutionTime = 1.02 s  ClockTime = 3 s

Time = 50

smoothSolver:  Solving for Ux, Initial residual = 0.00691727, Final residual = 0.000563524, No Iterations 2
smoothSolver:  Solving for Uy, Initial residual = 0.00689513, Final residual = 0.000561638, No Iterations 2
GAMG:  Solving for p, Initial residual = 0.0376649, Final residual = 0.000685815, No Iterations 3
time step continuity errors : sum local = 0.0215807, global = -3.65194e-16, cumulative = 5.05585e-15
smoothSolver:  Solving for epsilon, Initial residual = 0.00726359, Final residual = 0.000558215, No Iterations 2
smoothSolver:  Solving for k, Initial residual = 0.00881475, Final residual = 0.000736931, No Iterations 2
ExecutionTime = 1.1 s  ClockTime = 3 s

Time = 51

smoothSolver:  Solving for Ux, Initial residual = 0.00679798, Final residual = 0.000554804, No Iterations 2
smoothSolver:  Solving for Uy, Initial residual = 0.0067817, Final residual = 0.000552874, No Iterations 2
GAMG:  Solving for p, Initial residual = 0.0375736, Final residual = 0.000671723, No Iterations 3
time step continuity errors : sum local = 0.0211261, global = 2.6419e-16, cumulative = 5.32004e-15
smoothSolver:  Solving for epsilon, Initial residual = 0.00700186, Final residual = 0.000539943, No Iterations 2
smoothSolver:  Solving for k, Initial residual = 0.00854822, Final residual = 0.000711181, No Iterations 2
ExecutionTime = 1.12 s  ClockTime = 3 s

Time = 52

smoothSolver:  Solving for Ux, Initial residual = 0.00668693, Final residual = 0.000547494, No Iterations 2
smoothSolver:  Solving for Uy, Initial residual = 0.00667601, Final residual = 0.0005463, No Iterations 2
GAMG:  Solving for p, Initial residual = 0.0367003, Final residual = 0.000686522, No Iterations 3
time step continuity errors : sum local = 0.0214565, global = 5.12566e-16, cumulative = 5.83261e-15
smoothSolver:  Solving for epsilon, Initial residual = 0.00675661, Final residual = 0.000523402, No Iterations 2
smoothSolver:  Solving for k, Initial residual = 0.00832015, Final residual = 0.000689352, No Iterations 2
ExecutionTime = 1.15 s  ClockTime = 3 s

Time = 53

smoothSolver:  Solving for Ux, Initial residual = 0.006568, Final residual = 0.000539387, No Iterations 2
smoothSolver:  Solving for Uy, Initial residual = 0.00656246, Final residual = 0.000538039, No Iterations 2
GAMG:  Solving for p, Initial residual = 0.0369356, Final residual = 0.000707395, No Iterations 3
time step continuity errors : sum local = 0.0221102, global = 2.31525e-16, cumulative = 6.06413e-15
smoothSolver:  Solving for epsilon, Initial residual = 0.00653393, Final residual = 0.000508005, No Iterations 2
smoothSolver:  Solving for k, Initial residual = 0.00812449, Final residual = 0.000674028, No Iterations 2
ExecutionTime = 1.16 s  ClockTime = 3 s

Time = 54

smoothSolver:  Solving for Ux, Initial residual = 0.00646082, Final residual = 0.000532716, No Iterations 2
smoothSolver:  Solving for Uy, Initial residual = 0.00645159, Final residual = 0.000531144, No Iterations 2
GAMG:  Solving for p, Initial residual = 0.0359402, Final residual = 0.000735656, No Iterations 3
time step continuity errors : sum local = 0.0230035, global = -9.21148e-16, cumulative = 5.14298e-15
smoothSolver:  Solving for epsilon, Initial residual = 0.00632973, Final residual = 0.000494834, No Iterations 2
smoothSolver:  Solving for k, Initial residual = 0.00795654, Final residual = 0.000655486, No Iterations 2
ExecutionTime = 1.18 s  ClockTime = 3 s

Time = 55

smoothSolver:  Solving for Ux, Initial residual = 0.00635063, Final residual = 0.000523886, No Iterations 2
smoothSolver:  Solving for Uy, Initial residual = 0.00634586, Final residual = 0.000522449, No Iterations 2
GAMG:  Solving for p, Initial residual = 0.0367593, Final residual = 0.000744958, No Iterations 3
time step continuity errors : sum local = 0.0234187, global = -1.41756e-16, cumulative = 5.00123e-15
smoothSolver:  Solving for epsilon, Initial residual = 0.00615278, Final residual = 0.000482911, No Iterations 2
smoothSolver:  Solving for k, Initial residual = 0.00784781, Final residual = 0.000641075, No Iterations 2
ExecutionTime = 1.21 s  ClockTime = 3 s

Time = 56

smoothSolver:  Solving for Ux, Initial residual = 0.00624098, Final residual = 0.000515445, No Iterations 2
smoothSolver:  Solving for Uy, Initial residual = 0.00623045, Final residual = 0.000513995, No Iterations 2
GAMG:  Solving for p, Initial residual = 0.0355769, Final residual = 0.00075501, No Iterations 3
time step continuity errors : sum local = 0.0236236, global = 3.39899e-16, cumulative = 5.34113e-15
smoothSolver:  Solving for epsilon, Initial residual = 0.00600356, Final residual = 0.000471027, No Iterations 2
smoothSolver:  Solving for k, Initial residual = 0.00773665, Final residual = 0.000628267, No Iterations 2
ExecutionTime = 1.23 s  ClockTime = 3 s

Time = 57

smoothSolver:  Solving for Ux, Initial residual = 0.00613408, Final residual = 0.000506941, No Iterations 2
smoothSolver:  Solving for Uy, Initial residual = 0.0061266, Final residual = 0.000504931, No Iterations 2
GAMG:  Solving for p, Initial residual = 0.036287, Final residual = 0.000750999, No Iterations 3
time step continuity errors : sum local = 0.0235391, global = -7.94679e-16, cumulative = 4.54645e-15
smoothSolver:  Solving for epsilon, Initial residual = 0.00587343, Final residual = 0.000457738, No Iterations 2
smoothSolver:  Solving for k, Initial residual = 0.00765866, Final residual = 0.00061533, No Iterations 2
ExecutionTime = 1.24 s  ClockTime = 4 s

Time = 58

smoothSolver:  Solving for Ux, Initial residual = 0.00602544, Final residual = 0.000498305, No Iterations 2
smoothSolver:  Solving for Uy, Initial residual = 0.0060159, Final residual = 0.000496726, No Iterations 2
GAMG:  Solving for p, Initial residual = 0.0353361, Final residual = 0.000761852, No Iterations 3
time step continuity errors : sum local = 0.0237397, global = 4.52848e-16, cumulative = 4.99929e-15
smoothSolver:  Solving for epsilon, Initial residual = 0.00576827, Final residual = 0.000447366, No Iterations 2
smoothSolver:  Solving for k, Initial residual = 0.00757799, Final residual = 0.000603602, No Iterations 2
ExecutionTime = 1.26 s  ClockTime = 4 s

Time = 59

smoothSolver:  Solving for Ux, Initial residual = 0.00592482, Final residual = 0.000489728, No Iterations 2
smoothSolver:  Solving for Uy, Initial residual = 0.0059163, Final residual = 0.000487949, No Iterations 2
GAMG:  Solving for p, Initial residual = 0.0359508, Final residual = 0.000757743, No Iterations 3
time step continuity errors : sum local = 0.0235024, global = 2.4276e-16, cumulative = 5.24205e-15
smoothSolver:  Solving for epsilon, Initial residual = 0.00566382, Final residual = 0.000439933, No Iterations 2
smoothSolver:  Solving for k, Initial residual = 0.00751487, Final residual = 0.00059581, No Iterations 2
ExecutionTime = 1.27 s  ClockTime = 4 s

Time = 60

smoothSolver:  Solving for Ux, Initial residual = 0.00581873, Final residual = 0.000481917, No Iterations 2
smoothSolver:  Solving for Uy, Initial residual = 0.00581214, Final residual = 0.000480232, No Iterations 2
GAMG:  Solving for p, Initial residual = 0.0355654, Final residual = 0.000765176, No Iterations 3
time step continuity errors : sum local = 0.0233632, global = 6.32283e-16, cumulative = 5.87434e-15
smoothSolver:  Solving for epsilon, Initial residual = 0.00556632, Final residual = 0.000430314, No Iterations 2
smoothSolver:  Solving for k, Initial residual = 0.00746406, Final residual = 0.000589558, No Iterations 2
ExecutionTime = 1.28 s  ClockTime = 4 s

Time = 61

smoothSolver:  Solving for Ux, Initial residual = 0.00571728, Final residual = 0.000472652, No Iterations 2
smoothSolver:  Solving for Uy, Initial residual = 0.00571011, Final residual = 0.000471108, No Iterations 2
GAMG:  Solving for p, Initial residual = 0.0361604, Final residual = 0.00076297, No Iterations 3
time step continuity errors : sum local = 0.0231407, global = -5.6404e-16, cumulative = 5.3103e-15
smoothSolver:  Solving for epsilon, Initial residual = 0.00550918, Final residual = 0.000421697, No Iterations 2
smoothSolver:  Solving for k, Initial residual = 0.00742397, Final residual = 0.000584493, No Iterations 2
ExecutionTime = 1.3 s  ClockTime = 4 s

Time = 62

smoothSolver:  Solving for Ux, Initial residual = 0.00560343, Final residual = 0.000463203, No Iterations 2
smoothSolver:  Solving for Uy, Initial residual = 0.00559734, Final residual = 0.000461811, No Iterations 2
GAMG:  Solving for p, Initial residual = 0.0360429, Final residual = 0.000768455, No Iterations 3
time step continuity errors : sum local = 0.0231067, global = 5.39272e-16, cumulative = 5.84957e-15
smoothSolver:  Solving for epsilon, Initial residual = 0.00543094, Final residual = 0.000410261, No Iterations 2
smoothSolver:  Solving for k, Initial residual = 0.00740175, Final residual = 0.000582207, No Iterations 2
ExecutionTime = 1.31 s  ClockTime = 4 s

Time = 63

smoothSolver:  Solving for Ux, Initial residual = 0.00548739, Final residual = 0.000453814, No Iterations 2
smoothSolver:  Solving for Uy, Initial residual = 0.00548189, Final residual = 0.000452452, No Iterations 2
GAMG:  Solving for p, Initial residual = 0.036596, Final residual = 0.000762536, No Iterations 3
time step continuity errors : sum local = 0.0229753, global = 1.47378e-15, cumulative = 7.32335e-15
smoothSolver:  Solving for epsilon, Initial residual = 0.00540016, Final residual = 0.000404009, No Iterations 2
smoothSolver:  Solving for k, Initial residual = 0.00735845, Final residual = 0.000582336, No Iterations 2
ExecutionTime = 1.33 s  ClockTime = 4 s

Time = 64

smoothSolver:  Solving for Ux, Initial residual = 0.00537944, Final residual = 0.000444678, No Iterations 2
smoothSolver:  Solving for Uy, Initial residual = 0.0053777, Final residual = 0.000443334, No Iterations 2
GAMG:  Solving for p, Initial residual = 0.0363353, Final residual = 0.000765809, No Iterations 3
time step continuity errors : sum local = 0.0228804, global = 1.2946e-16, cumulative = 7.45281e-15
smoothSolver:  Solving for epsilon, Initial residual = 0.00535867, Final residual = 0.000395693, No Iterations 2
smoothSolver:  Solving for k, Initial residual = 0.00730819, Final residual = 0.000582886, No Iterations 2
ExecutionTime = 1.34 s  ClockTime = 4 s

Time = 65

smoothSolver:  Solving for Ux, Initial residual = 0.00527608, Final residual = 0.000435553, No Iterations 2
smoothSolver:  Solving for Uy, Initial residual = 0.00526948, Final residual = 0.000434152, No Iterations 2
GAMG:  Solving for p, Initial residual = 0.0361676, Final residual = 0.000763176, No Iterations 3
time step continuity errors : sum local = 0.0228265, global = 7.22834e-16, cumulative = 8.17564e-15
smoothSolver:  Solving for epsilon, Initial residual = 0.00532451, Final residual = 0.000390398, No Iterations 2
smoothSolver:  Solving for k, Initial residual = 0.00726086, Final residual = 0.000581143, No Iterations 2
ExecutionTime = 1.36 s  ClockTime = 4 s

Time = 66

smoothSolver:  Solving for Ux, Initial residual = 0.00518051, Final residual = 0.000426284, No Iterations 2
smoothSolver:  Solving for Uy, Initial residual = 0.00517808, Final residual = 0.000424975, No Iterations 2
GAMG:  Solving for p, Initial residual = 0.035685, Final residual = 0.000762172, No Iterations 3
time step continuity errors : sum local = 0.0227257, global = -1.45797e-16, cumulative = 8.02984e-15
smoothSolver:  Solving for epsilon, Initial residual = 0.00527192, Final residual = 0.000384862, No Iterations 2
smoothSolver:  Solving for k, Initial residual = 0.00722914, Final residual = 0.000581459, No Iterations 2
ExecutionTime = 1.38 s  ClockTime = 4 s

Time = 67

smoothSolver:  Solving for Ux, Initial residual = 0.0050775, Final residual = 0.000416519, No Iterations 2
smoothSolver:  Solving for Uy, Initial residual = 0.00507113, Final residual = 0.000415123, No Iterations 2
GAMG:  Solving for p, Initial residual = 0.0346829, Final residual = 0.000743589, No Iterations 3
time step continuity errors : sum local = 0.022232, global = -5.30138e-16, cumulative = 7.49971e-15
smoothSolver:  Solving for epsilon, Initial residual = 0.00517971, Final residual = 0.000380092, No Iterations 2
smoothSolver:  Solving for k, Initial residual = 0.00722469, Final residual = 0.000584664, No Iterations 2
ExecutionTime = 1.4 s  ClockTime = 4 s

Time = 68

smoothSolver:  Solving for Ux, Initial residual = 0.00496829, Final residual = 0.000406663, No Iterations 2
smoothSolver:  Solving for Uy, Initial residual = 0.00496373, Final residual = 0.000405244, No Iterations 2
GAMG:  Solving for p, Initial residual = 0.0342348, Final residual = 0.000730033, No Iterations 3
time step continuity errors : sum local = 0.0222214, global = 6.97719e-16, cumulative = 8.19742e-15
smoothSolver:  Solving for epsilon, Initial residual = 0.00510239, Final residual = 0.000374684, No Iterations 2
smoothSolver:  Solving for k, Initial residual = 0.00721905, Final residual = 0.000588007, No Iterations 2
ExecutionTime = 1.42 s  ClockTime = 4 s

Time = 69

smoothSolver:  Solving for Ux, Initial residual = 0.00485461, Final residual = 0.000396308, No Iterations 2
smoothSolver:  Solving for Uy, Initial residual = 0.00484896, Final residual = 0.000394957, No Iterations 2
GAMG:  Solving for p, Initial residual = 0.0338722, Final residual = 0.00071326, No Iterations 3
time step continuity errors : sum local = 0.0219516, global = 2.20539e-16, cumulative = 8.41796e-15
smoothSolver:  Solving for epsilon, Initial residual = 0.0050617, Final residual = 0.000366977, No Iterations 2
smoothSolver:  Solving for k, Initial residual = 0.00722736, Final residual = 0.000594027, No Iterations 2
ExecutionTime = 1.43 s  ClockTime = 4 s

Time = 70

smoothSolver:  Solving for Ux, Initial residual = 0.0047479, Final residual = 0.000386611, No Iterations 2
smoothSolver:  Solving for Uy, Initial residual = 0.00474148, Final residual = 0.000385244, No Iterations 2
GAMG:  Solving for p, Initial residual = 0.0341261, Final residual = 0.000708664, No Iterations 3
time step continuity errors : sum local = 0.0220195, global = 2.47327e-16, cumulative = 8.66529e-15
smoothSolver:  Solving for epsilon, Initial residual = 0.00501973, Final residual = 0.00036304, No Iterations 2
smoothSolver:  Solving for k, Initial residual = 0.00722957, Final residual = 0.000601819, No Iterations 2
ExecutionTime = 1.45 s  ClockTime = 4 s

Time = 71

smoothSolver:  Solving for Ux, Initial residual = 0.0046393, Final residual = 0.000377078, No Iterations 2
smoothSolver:  Solving for Uy, Initial residual = 0.00463387, Final residual = 0.000375717, No Iterations 2
GAMG:  Solving for p, Initial residual = 0.0346525, Final residual = 0.000696169, No Iterations 3
time step continuity errors : sum local = 0.0217749, global = 8.82157e-16, cumulative = 9.54745e-15
smoothSolver:  Solving for epsilon, Initial residual = 0.0049728, Final residual = 0.000361293, No Iterations 2
smoothSolver:  Solving for k, Initial residual = 0.00722363, Final residual = 0.000608723, No Iterations 2
ExecutionTime = 1.5 s  ClockTime = 4 s

Time = 72

smoothSolver:  Solving for Ux, Initial residual = 0.00453847, Final residual = 0.000368701, No Iterations 2
smoothSolver:  Solving for Uy, Initial residual = 0.00453383, Final residual = 0.000367329, No Iterations 2
GAMG:  Solving for p, Initial residual = 0.0350154, Final residual = 0.000693551, No Iterations 3
time step continuity errors : sum local = 0.0218182, global = 5.19598e-16, cumulative = 1.0067e-14
smoothSolver:  Solving for epsilon, Initial residual = 0.00491566, Final residual = 0.000358102, No Iterations 2
smoothSolver:  Solving for k, Initial residual = 0.00721518, Final residual = 0.000617022, No Iterations 2
ExecutionTime = 1.53 s  ClockTime = 4 s

Time = 73

smoothSolver:  Solving for Ux, Initial residual = 0.00443539, Final residual = 0.000359564, No Iterations 2
smoothSolver:  Solving for Uy, Initial residual = 0.00442979, Final residual = 0.00035838, No Iterations 2
GAMG:  Solving for p, Initial residual = 0.0356758, Final residual = 0.00177489, No Iterations 2
time step continuity errors : sum local = 0.0540267, global = 6.89194e-16, cumulative = 1.07562e-14
smoothSolver:  Solving for epsilon, Initial residual = 0.00485799, Final residual = 0.000355698, No Iterations 2
smoothSolver:  Solving for k, Initial residual = 0.00721972, Final residual = 0.00062641, No Iterations 2
ExecutionTime = 1.55 s  ClockTime = 4 s

Time = 74

smoothSolver:  Solving for Ux, Initial residual = 0.00435473, Final residual = 0.000351528, No Iterations 2
smoothSolver:  Solving for Uy, Initial residual = 0.00434611, Final residual = 0.000350037, No Iterations 2
GAMG:  Solving for p, Initial residual = 0.0370594, Final residual = 0.000780516, No Iterations 3
time step continuity errors : sum local = 0.0246396, global = 5.60351e-16, cumulative = 1.13166e-14
smoothSolver:  Solving for epsilon, Initial residual = 0.00481232, Final residual = 0.000353761, No Iterations 2
smoothSolver:  Solving for k, Initial residual = 0.00721967, Final residual = 0.000635609, No Iterations 2
ExecutionTime = 1.57 s  ClockTime = 4 s

Time = 75

smoothSolver:  Solving for Ux, Initial residual = 0.00425715, Final residual = 0.000342649, No Iterations 2
smoothSolver:  Solving for Uy, Initial residual = 0.00425564, Final residual = 0.000341507, No Iterations 2
GAMG:  Solving for p, Initial residual = 0.0369702, Final residual = 0.000753701, No Iterations 3
time step continuity errors : sum local = 0.023748, global = 9.7631e-16, cumulative = 1.22929e-14
smoothSolver:  Solving for epsilon, Initial residual = 0.00477097, Final residual = 0.000351364, No Iterations 2
smoothSolver:  Solving for k, Initial residual = 0.00723452, Final residual = 0.000646467, No Iterations 2
ExecutionTime = 1.6 s  ClockTime = 4 s

Time = 76

smoothSolver:  Solving for Ux, Initial residual = 0.00415998, Final residual = 0.000334271, No Iterations 2
smoothSolver:  Solving for Uy, Initial residual = 0.00415689, Final residual = 0.000333248, No Iterations 2
GAMG:  Solving for p, Initial residual = 0.0367028, Final residual = 0.00183287, No Iterations 2
time step continuity errors : sum local = 0.0557444, global = -2.71568e-16, cumulative = 1.20213e-14
smoothSolver:  Solving for epsilon, Initial residual = 0.00472807, Final residual = 0.000349923, No Iterations 2
smoothSolver:  Solving for k, Initial residual = 0.00726402, Final residual = 0.000655627, No Iterations 2
ExecutionTime = 1.63 s  ClockTime = 4 s

Time = 77

smoothSolver:  Solving for Ux, Initial residual = 0.00407574, Final residual = 0.000326737, No Iterations 2
smoothSolver:  Solving for Uy, Initial residual = 0.00407322, Final residual = 0.000325474, No Iterations 2
GAMG:  Solving for p, Initial residual = 0.0362908, Final residual = 0.00179477, No Iterations 2
time step continuity errors : sum local = 0.0538858, global = 1.46558e-17, cumulative = 1.2036e-14
smoothSolver:  Solving for epsilon, Initial residual = 0.00469532, Final residual = 0.000347032, No Iterations 2
smoothSolver:  Solving for k, Initial residual = 0.00727708, Final residual = 0.000663833, No Iterations 2
ExecutionTime = 1.66 s  ClockTime = 4 s

Time = 78

smoothSolver:  Solving for Ux, Initial residual = 0.00398334, Final residual = 0.000318269, No Iterations 2
smoothSolver:  Solving for Uy, Initial residual = 0.00397663, Final residual = 0.000316959, No Iterations 2
GAMG:  Solving for p, Initial residual = 0.0358595, Final residual = 0.000725544, No Iterations 3
time step continuity errors : sum local = 0.0223874, global = 8.09872e-16, cumulative = 1.28459e-14
smoothSolver:  Solving for epsilon, Initial residual = 0.00466917, Final residual = 0.00034362, No Iterations 2
smoothSolver:  Solving for k, Initial residual = 0.00727358, Final residual = 0.00067005, No Iterations 2
ExecutionTime = 1.68 s  ClockTime = 5 s

Time = 79

smoothSolver:  Solving for Ux, Initial residual = 0.00388041, Final residual = 0.000308411, No Iterations 2
smoothSolver:  Solving for Uy, Initial residual = 0.00388306, Final residual = 0.000307622, No Iterations 2
GAMG:  Solving for p, Initial residual = 0.0355255, Final residual = 0.00172213, No Iterations 2
time step continuity errors : sum local = 0.051146, global = -3.40778e-16, cumulative = 1.25051e-14
smoothSolver:  Solving for epsilon, Initial residual = 0.0046459, Final residual = 0.000342082, No Iterations 2
smoothSolver:  Solving for k, Initial residual = 0.00727222, Final residual = 0.000677417, No Iterations 2
ExecutionTime = 1.71 s  ClockTime = 5 s

Time = 80

smoothSolver:  Solving for Ux, Initial residual = 0.00379195, Final residual = 0.000300384, No Iterations 2
smoothSolver:  Solving for Uy, Initial residual = 0.00379381, Final residual = 0.000299671, No Iterations 2
GAMG:  Solving for p, Initial residual = 0.0352227, Final residual = 0.000687508, No Iterations 3
time step continuity errors : sum local = 0.0209144, global = 1.91416e-17, cumulative = 1.25242e-14
smoothSolver:  Solving for epsilon, Initial residual = 0.00459795, Final residual = 0.000341157, No Iterations 2
smoothSolver:  Solving for k, Initial residual = 0.00726551, Final residual = 0.000683924, No Iterations 2
ExecutionTime = 1.74 s  ClockTime = 5 s

Time = 81

smoothSolver:  Solving for Ux, Initial residual = 0.00369931, Final residual = 0.000293032, No Iterations 2
smoothSolver:  Solving for Uy, Initial residual = 0.00370391, Final residual = 0.000292523, No Iterations 2
GAMG:  Solving for p, Initial residual = 0.0351441, Final residual = 0.00166861, No Iterations 2
time step continuity errors : sum local = 0.0491615, global = 3.05118e-16, cumulative = 1.28293e-14
smoothSolver:  Solving for epsilon, Initial residual = 0.00455297, Final residual = 0.000341358, No Iterations 2
smoothSolver:  Solving for k, Initial residual = 0.00727638, Final residual = 0.000690254, No Iterations 2
ExecutionTime = 1.75 s  ClockTime = 5 s

Time = 82

smoothSolver:  Solving for Ux, Initial residual = 0.00362375, Final residual = 0.000285965, No Iterations 2
smoothSolver:  Solving for Uy, Initial residual = 0.00362449, Final residual = 0.000285387, No Iterations 2
GAMG:  Solving for p, Initial residual = 0.0345383, Final residual = 0.00171733, No Iterations 2
time step continuity errors : sum local = 0.0500655, global = -3.98045e-16, cumulative = 1.24313e-14
smoothSolver:  Solving for epsilon, Initial residual = 0.00452112, Final residual = 0.000342809, No Iterations 2
smoothSolver:  Solving for k, Initial residual = 0.00729485, Final residual = 0.000696505, No Iterations 2
ExecutionTime = 1.78 s  ClockTime = 5 s

Time = 83

smoothSolver:  Solving for Ux, Initial residual = 0.00354977, Final residual = 0.00027876, No Iterations 2
smoothSolver:  Solving for Uy, Initial residual = 0.0035501, Final residual = 0.00027791, No Iterations 2
GAMG:  Solving for p, Initial residual = 0.0346812, Final residual = 0.000700887, No Iterations 3
time step continuity errors : sum local = 0.0209708, global = -8.66699e-16, cumulative = 1.15646e-14
smoothSolver:  Solving for epsilon, Initial residual = 0.00450925, Final residual = 0.000341586, No Iterations 2
smoothSolver:  Solving for k, Initial residual = 0.00731227, Final residual = 0.000704451, No Iterations 2
ExecutionTime = 1.79 s  ClockTime = 5 s

Time = 84

smoothSolver:  Solving for Ux, Initial residual = 0.00347074, Final residual = 0.000271803, No Iterations 2
smoothSolver:  Solving for Uy, Initial residual = 0.00346725, Final residual = 0.000270961, No Iterations 2
GAMG:  Solving for p, Initial residual = 0.0324496, Final residual = 0.000642047, No Iterations 3
time step continuity errors : sum local = 0.019056, global = 5.07478e-16, cumulative = 1.20721e-14
smoothSolver:  Solving for epsilon, Initial residual = 0.00449342, Final residual = 0.000342476, No Iterations 2
smoothSolver:  Solving for k, Initial residual = 0.00731726, Final residual = 0.000710118, No Iterations 2
ExecutionTime = 1.81 s  ClockTime = 5 s

Time = 85

smoothSolver:  Solving for Ux, Initial residual = 0.00339687, Final residual = 0.000265454, No Iterations 2
smoothSolver:  Solving for Uy, Initial residual = 0.00339565, Final residual = 0.000264642, No Iterations 2
GAMG:  Solving for p, Initial residual = 0.0310715, Final residual = 0.00150812, No Iterations 2
time step continuity errors : sum local = 0.043912, global = 4.47874e-17, cumulative = 1.21169e-14
smoothSolver:  Solving for epsilon, Initial residual = 0.00446905, Final residual = 0.000344956, No Iterations 2
smoothSolver:  Solving for k, Initial residual = 0.00731994, Final residual = 0.000714847, No Iterations 2
ExecutionTime = 1.83 s  ClockTime = 5 s

Time = 86

smoothSolver:  Solving for Ux, Initial residual = 0.00333379, Final residual = 0.000259285, No Iterations 2
smoothSolver:  Solving for Uy, Initial residual = 0.00332675, Final residual = 0.000258226, No Iterations 2
GAMG:  Solving for p, Initial residual = 0.0302305, Final residual = 0.000584302, No Iterations 3
time step continuity errors : sum local = 0.0174047, global = 8.51416e-16, cumulative = 1.29683e-14
smoothSolver:  Solving for epsilon, Initial residual = 0.00445378, Final residual = 0.00034656, No Iterations 2
smoothSolver:  Solving for k, Initial residual = 0.0073319, Final residual = 0.000719367, No Iterations 2
ExecutionTime = 1.84 s  ClockTime = 5 s

Time = 87

smoothSolver:  Solving for Ux, Initial residual = 0.00326727, Final residual = 0.00025399, No Iterations 2
smoothSolver:  Solving for Uy, Initial residual = 0.00326308, Final residual = 0.000252962, No Iterations 2
GAMG:  Solving for p, Initial residual = 0.0314688, Final residual = 0.00147109, No Iterations 2
time step continuity errors : sum local = 0.04245, global = 7.42421e-16, cumulative = 1.37107e-14
smoothSolver:  Solving for epsilon, Initial residual = 0.00444714, Final residual = 0.000348453, No Iterations 2
smoothSolver:  Solving for k, Initial residual = 0.00732703, Final residual = 0.000722305, No Iterations 2
ExecutionTime = 1.86 s  ClockTime = 5 s

Time = 88

smoothSolver:  Solving for Ux, Initial residual = 0.00320547, Final residual = 0.000247782, No Iterations 2
smoothSolver:  Solving for Uy, Initial residual = 0.00319888, Final residual = 0.000246883, No Iterations 2
GAMG:  Solving for p, Initial residual = 0.0302768, Final residual = 0.000582405, No Iterations 3
time step continuity errors : sum local = 0.0173488, global = -2.90364e-16, cumulative = 1.34203e-14
smoothSolver:  Solving for epsilon, Initial residual = 0.00445226, Final residual = 0.000350811, No Iterations 2
smoothSolver:  Solving for k, Initial residual = 0.00733096, Final residual = 0.000725317, No Iterations 2
ExecutionTime = 1.88 s  ClockTime = 5 s

Time = 89

smoothSolver:  Solving for Ux, Initial residual = 0.00313293, Final residual = 0.00024175, No Iterations 2
smoothSolver:  Solving for Uy, Initial residual = 0.0031309, Final residual = 0.00024093, No Iterations 2
GAMG:  Solving for p, Initial residual = 0.0294268, Final residual = 0.000560166, No Iterations 3
time step continuity errors : sum local = 0.0166545, global = 4.89385e-16, cumulative = 1.39097e-14
smoothSolver:  Solving for epsilon, Initial residual = 0.00448075, Final residual = 0.000351388, No Iterations 2
smoothSolver:  Solving for k, Initial residual = 0.00734023, Final residual = 0.000728175, No Iterations 2
ExecutionTime = 1.9 s  ClockTime = 5 s

Time = 90

smoothSolver:  Solving for Ux, Initial residual = 0.00306817, Final residual = 0.000236221, No Iterations 2
smoothSolver:  Solving for Uy, Initial residual = 0.00306652, Final residual = 0.000235711, No Iterations 2
GAMG:  Solving for p, Initial residual = 0.0287235, Final residual = 0.00140667, No Iterations 2
time step continuity errors : sum local = 0.0405178, global = 6.18318e-17, cumulative = 1.39716e-14
smoothSolver:  Solving for epsilon, Initial residual = 0.00449035, Final residual = 0.000354138, No Iterations 2
smoothSolver:  Solving for k, Initial residual = 0.00736137, Final residual = 0.000732674, No Iterations 2
ExecutionTime = 1.91 s  ClockTime = 5 s

Time = 91

smoothSolver:  Solving for Ux, Initial residual = 0.00301679, Final residual = 0.000231192, No Iterations 2
smoothSolver:  Solving for Uy, Initial residual = 0.00301297, Final residual = 0.000230393, No Iterations 2
GAMG:  Solving for p, Initial residual = 0.0291302, Final residual = 0.00142503, No Iterations 2
time step continuity errors : sum local = 0.0409624, global = -4.03312e-16, cumulative = 1.35682e-14
smoothSolver:  Solving for epsilon, Initial residual = 0.00450192, Final residual = 0.000354201, No Iterations 2
smoothSolver:  Solving for k, Initial residual = 0.00736063, Final residual = 0.000734776, No Iterations 2
ExecutionTime = 1.93 s  ClockTime = 5 s

Time = 92

smoothSolver:  Solving for Ux, Initial residual = 0.00295968, Final residual = 0.000226376, No Iterations 2
smoothSolver:  Solving for Uy, Initial residual = 0.00295433, Final residual = 0.000225761, No Iterations 2
GAMG:  Solving for p, Initial residual = 0.028058, Final residual = 0.00057736, No Iterations 3
time step continuity errors : sum local = 0.0169765, global = -7.43036e-17, cumulative = 1.34939e-14
smoothSolver:  Solving for epsilon, Initial residual = 0.00451013, Final residual = 0.000355839, No Iterations 2
smoothSolver:  Solving for k, Initial residual = 0.00735448, Final residual = 9.08696e-05, No Iterations 4
ExecutionTime = 1.95 s  ClockTime = 5 s

Time = 93

smoothSolver:  Solving for Ux, Initial residual = 0.00290098, Final residual = 0.000222003, No Iterations 2
smoothSolver:  Solving for Uy, Initial residual = 0.00289846, Final residual = 0.000221385, No Iterations 2
GAMG:  Solving for p, Initial residual = 0.0274988, Final residual = 0.000535672, No Iterations 3
time step continuity errors : sum local = 0.0157784, global = -7.08606e-16, cumulative = 1.27853e-14
smoothSolver:  Solving for epsilon, Initial residual = 0.00454395, Final residual = 0.000362621, No Iterations 2
smoothSolver:  Solving for k, Initial residual = 0.00736314, Final residual = 9.07806e-05, No Iterations 4
ExecutionTime = 1.96 s  ClockTime = 5 s

Time = 94

smoothSolver:  Solving for Ux, Initial residual = 0.00284863, Final residual = 0.000218224, No Iterations 2
smoothSolver:  Solving for Uy, Initial residual = 0.00284545, Final residual = 0.000217705, No Iterations 2
GAMG:  Solving for p, Initial residual = 0.0268263, Final residual = 0.00128121, No Iterations 2
time step continuity errors : sum local = 0.0367766, global = -2.8264e-16, cumulative = 1.25027e-14
smoothSolver:  Solving for epsilon, Initial residual = 0.00457959, Final residual = 0.00036858, No Iterations 2
smoothSolver:  Solving for k, Initial residual = 0.00737637, Final residual = 0.000736328, No Iterations 2
ExecutionTime = 1.98 s  ClockTime = 5 s

Time = 95

smoothSolver:  Solving for Ux, Initial residual = 0.00280188, Final residual = 0.000214851, No Iterations 2
smoothSolver:  Solving for Uy, Initial residual = 0.00279748, Final residual = 0.000214138, No Iterations 2
GAMG:  Solving for p, Initial residual = 0.0271977, Final residual = 0.00131152, No Iterations 2
time step continuity errors : sum local = 0.0375361, global = -8.80664e-16, cumulative = 1.1622e-14
smoothSolver:  Solving for epsilon, Initial residual = 0.00458019, Final residual = 0.000368496, No Iterations 2
smoothSolver:  Solving for k, Initial residual = 0.00735276, Final residual = 0.000735021, No Iterations 2
ExecutionTime = 2 s  ClockTime = 5 s

Time = 96

smoothSolver:  Solving for Ux, Initial residual = 0.00275298, Final residual = 0.000211343, No Iterations 2
smoothSolver:  Solving for Uy, Initial residual = 0.00274737, Final residual = 0.000210825, No Iterations 2
GAMG:  Solving for p, Initial residual = 0.0260582, Final residual = 0.000511807, No Iterations 3
time step continuity errors : sum local = 0.0149914, global = -1.05009e-15, cumulative = 1.05719e-14
smoothSolver:  Solving for epsilon, Initial residual = 0.00458579, Final residual = 0.000368788, No Iterations 2
smoothSolver:  Solving for k, Initial residual = 0.00732693, Final residual = 8.95462e-05, No Iterations 4
ExecutionTime = 2.01 s  ClockTime = 5 s

Time = 97

smoothSolver:  Solving for Ux, Initial residual = 0.00270886, Final residual = 0.000208756, No Iterations 2
smoothSolver:  Solving for Uy, Initial residual = 0.00270525, Final residual = 0.000208291, No Iterations 2
GAMG:  Solving for p, Initial residual = 0.0253612, Final residual = 0.000481474, No Iterations 3
time step continuity errors : sum local = 0.0141231, global = -8.44918e-16, cumulative = 9.72702e-15
smoothSolver:  Solving for epsilon, Initial residual = 0.00463129, Final residual = 0.000373372, No Iterations 2
smoothSolver:  Solving for k, Initial residual = 0.00733658, Final residual = 0.000732933, No Iterations 2
ExecutionTime = 2.03 s  ClockTime = 5 s

Time = 98

smoothSolver:  Solving for Ux, Initial residual = 0.00266897, Final residual = 0.000206376, No Iterations 2
smoothSolver:  Solving for Uy, Initial residual = 0.002666, Final residual = 0.000206056, No Iterations 2
GAMG:  Solving for p, Initial residual = 0.0250099, Final residual = 0.00122334, No Iterations 2
time step continuity errors : sum local = 0.0349483, global = 8.19623e-16, cumulative = 1.05466e-14
smoothSolver:  Solving for epsilon, Initial residual = 0.0046357, Final residual = 0.000372457, No Iterations 2
smoothSolver:  Solving for k, Initial residual = 0.00731282, Final residual = 0.000729373, No Iterations 2
ExecutionTime = 2.05 s  ClockTime = 5 s

Time = 99

smoothSolver:  Solving for Ux, Initial residual = 0.00263322, Final residual = 0.00020418, No Iterations 2
smoothSolver:  Solving for Uy, Initial residual = 0.0026295, Final residual = 0.000203811, No Iterations 2
GAMG:  Solving for p, Initial residual = 0.0249545, Final residual = 0.000460132, No Iterations 3
time step continuity errors : sum local = 0.0134001, global = -4.79548e-16, cumulative = 1.00671e-14
smoothSolver:  Solving for epsilon, Initial residual = 0.0046207, Final residual = 0.000369786, No Iterations 2
smoothSolver:  Solving for k, Initial residual = 0.0072929, Final residual = 0.000727269, No Iterations 2
ExecutionTime = 2.06 s  ClockTime = 6 s

Time = 100

smoothSolver:  Solving for Ux, Initial residual = 0.00259782, Final residual = 0.000202148, No Iterations 2
smoothSolver:  Solving for Uy, Initial residual = 0.0025946, Final residual = 0.000201926, No Iterations 2
GAMG:  Solving for p, Initial residual = 0.0234483, Final residual = 0.000438122, No Iterations 3
time step continuity errors : sum local = 0.0127365, global = 3.70991e-16, cumulative = 1.04381e-14
smoothSolver:  Solving for epsilon, Initial residual = 0.00461943, Final residual = 0.000368878, No Iterations 2
smoothSolver:  Solving for k, Initial residual = 0.00727737, Final residual = 0.000725482, No Iterations 2
ExecutionTime = 2.18 s  ClockTime = 6 s

Time = 101

smoothSolver:  Solving for Ux, Initial residual = 0.00256811, Final residual = 0.000200476, No Iterations 2
smoothSolver:  Solving for Uy, Initial residual = 0.00256512, Final residual = 0.000200304, No Iterations 2
GAMG:  Solving for p, Initial residual = 0.0231251, Final residual = 0.000423052, No Iterations 3
time step continuity errors : sum local = 0.0122719, global = 3.06173e-16, cumulative = 1.07443e-14
smoothSolver:  Solving for epsilon, Initial residual = 0.00463038, Final residual = 0.00036728, No Iterations 2
smoothSolver:  Solving for k, Initial residual = 0.00725659, Final residual = 0.0007215, No Iterations 2
ExecutionTime = 2.2 s  ClockTime = 6 s

Time = 102

smoothSolver:  Solving for Ux, Initial residual = 0.00254079, Final residual = 0.000199155, No Iterations 2
smoothSolver:  Solving for Uy, Initial residual = 0.00253849, Final residual = 0.00019906, No Iterations 2
GAMG:  Solving for p, Initial residual = 0.0227836, Final residual = 0.00112336, No Iterations 2
time step continuity errors : sum local = 0.0318472, global = -9.19133e-16, cumulative = 9.82513e-15
smoothSolver:  Solving for epsilon, Initial residual = 0.00465149, Final residual = 0.000367313, No Iterations 2
smoothSolver:  Solving for k, Initial residual = 0.00724577, Final residual = 0.000718537, No Iterations 2
ExecutionTime = 2.22 s  ClockTime = 6 s

Time = 103

smoothSolver:  Solving for Ux, Initial residual = 0.00251646, Final residual = 0.000197975, No Iterations 2
smoothSolver:  Solving for Uy, Initial residual = 0.00251326, Final residual = 0.000197831, No Iterations 2
GAMG:  Solving for p, Initial residual = 0.0236997, Final residual = 0.000436538, No Iterations 3
time step continuity errors : sum local = 0.0126164, global = -9.08681e-16, cumulative = 8.91645e-15
smoothSolver:  Solving for epsilon, Initial residual = 0.00465576, Final residual = 0.000366532, No Iterations 2
smoothSolver:  Solving for k, Initial residual = 0.00723555, Final residual = 0.00071556, No Iterations 2
ExecutionTime = 2.23 s  ClockTime = 6 s

Time = 104

smoothSolver:  Solving for Ux, Initial residual = 0.00248966, Final residual = 0.000196142, No Iterations 2
smoothSolver:  Solving for Uy, Initial residual = 0.0024854, Final residual = 0.000196097, No Iterations 2
GAMG:  Solving for p, Initial residual = 0.0226984, Final residual = 0.000422915, No Iterations 3
time step continuity errors : sum local = 0.0122326, global = 5.09146e-16, cumulative = 9.42559e-15
smoothSolver:  Solving for epsilon, Initial residual = 0.00465852, Final residual = 0.000364943, No Iterations 2
smoothSolver:  Solving for k, Initial residual = 0.00723265, Final residual = 0.000713835, No Iterations 2
ExecutionTime = 2.25 s  ClockTime = 6 s

Time = 105

smoothSolver:  Solving for Ux, Initial residual = 0.00246745, Final residual = 0.000195383, No Iterations 2
smoothSolver:  Solving for Uy, Initial residual = 0.00246288, Final residual = 0.000195329, No Iterations 2
GAMG:  Solving for p, Initial residual = 0.0227671, Final residual = 0.000413188, No Iterations 3
time step continuity errors : sum local = 0.0119478, global = 7.4409e-16, cumulative = 1.01697e-14
smoothSolver:  Solving for epsilon, Initial residual = 0.00466045, Final residual = 0.00036373, No Iterations 2
smoothSolver:  Solving for k, Initial residual = 0.00722144, Final residual = 0.000709407, No Iterations 2
ExecutionTime = 2.27 s  ClockTime = 6 s

Time = 106

smoothSolver:  Solving for Ux, Initial residual = 0.00244884, Final residual = 0.000194663, No Iterations 2
smoothSolver:  Solving for Uy, Initial residual = 0.00244519, Final residual = 0.000194594, No Iterations 2
GAMG:  Solving for p, Initial residual = 0.0227052, Final residual = 0.00111743, No Iterations 2
time step continuity errors : sum local = 0.0318051, global = 2.66124e-16, cumulative = 1.04358e-14
smoothSolver:  Solving for epsilon, Initial residual = 0.00465205, Final residual = 0.000362734, No Iterations 2
smoothSolver:  Solving for k, Initial residual = 0.00721191, Final residual = 0.000706346, No Iterations 2
ExecutionTime = 2.28 s  ClockTime = 6 s

Time = 107

smoothSolver:  Solving for Ux, Initial residual = 0.00243084, Final residual = 0.000193845, No Iterations 2
smoothSolver:  Solving for Uy, Initial residual = 0.00242593, Final residual = 0.000193803, No Iterations 2
GAMG:  Solving for p, Initial residual = 0.0226047, Final residual = 0.00043006, No Iterations 3
time step continuity errors : sum local = 0.0124221, global = 4.25796e-16, cumulative = 1.08616e-14
smoothSolver:  Solving for epsilon, Initial residual = 0.00465177, Final residual = 0.000361189, No Iterations 2
smoothSolver:  Solving for k, Initial residual = 0.00720139, Final residual = 0.00070263, No Iterations 2
ExecutionTime = 2.3 s  ClockTime = 6 s

Time = 108

smoothSolver:  Solving for Ux, Initial residual = 0.00241213, Final residual = 0.000193839, No Iterations 2
smoothSolver:  Solving for Uy, Initial residual = 0.00240827, Final residual = 0.000193791, No Iterations 2
GAMG:  Solving for p, Initial residual = 0.0219033, Final residual = 0.000401918, No Iterations 3
time step continuity errors : sum local = 0.0116206, global = -1.67402e-16, cumulative = 1.06942e-14
smoothSolver:  Solving for epsilon, Initial residual = 0.00465651, Final residual = 0.000360009, No Iterations 2
smoothSolver:  Solving for k, Initial residual = 0.00719956, Final residual = 0.000699988, No Iterations 2
ExecutionTime = 2.31 s  ClockTime = 6 s

Time = 109

smoothSolver:  Solving for Ux, Initial residual = 0.00239889, Final residual = 0.000193772, No Iterations 2
smoothSolver:  Solving for Uy, Initial residual = 0.00239496, Final residual = 0.000193738, No Iterations 2
GAMG:  Solving for p, Initial residual = 0.0216559, Final residual = 0.000384101, No Iterations 3
time step continuity errors : sum local = 0.0110797, global = 7.14228e-16, cumulative = 1.14084e-14
smoothSolver:  Solving for epsilon, Initial residual = 0.00465395, Final residual = 0.000358549, No Iterations 2
smoothSolver:  Solving for k, Initial residual = 0.00718531, Final residual = 0.000696802, No Iterations 2
ExecutionTime = 2.33 s  ClockTime = 6 s

Time = 110

smoothSolver:  Solving for Ux, Initial residual = 0.00238792, Final residual = 0.000193732, No Iterations 2
smoothSolver:  Solving for Uy, Initial residual = 0.00238463, Final residual = 0.00019367, No Iterations 2
GAMG:  Solving for p, Initial residual = 0.0208098, Final residual = 0.0010301, No Iterations 2
time step continuity errors : sum local = 0.0293244, global = -4.57766e-16, cumulative = 1.09507e-14
smoothSolver:  Solving for epsilon, Initial residual = 0.00465823, Final residual = 0.000357351, No Iterations 2
smoothSolver:  Solving for k, Initial residual = 0.00717397, Final residual = 0.000693386, No Iterations 2
ExecutionTime = 2.34 s  ClockTime = 6 s

Time = 111

smoothSolver:  Solving for Ux, Initial residual = 0.0023765, Final residual = 0.000193294, No Iterations 2
smoothSolver:  Solving for Uy, Initial residual = 0.00237433, Final residual = 0.00019343, No Iterations 2
GAMG:  Solving for p, Initial residual = 0.0205687, Final residual = 0.000387158, No Iterations 3
time step continuity errors : sum local = 0.0111482, global = -7.00702e-16, cumulative = 1.025e-14
smoothSolver:  Solving for epsilon, Initial residual = 0.00465436, Final residual = 0.000355067, No Iterations 2
smoothSolver:  Solving for k, Initial residual = 0.00716753, Final residual = 0.000690519, No Iterations 2
ExecutionTime = 2.36 s  ClockTime = 6 s

Time = 112

smoothSolver:  Solving for Ux, Initial residual = 0.00236675, Final residual = 0.000193488, No Iterations 2
smoothSolver:  Solving for Uy, Initial residual = 0.00236303, Final residual = 0.000193495, No Iterations 2
GAMG:  Solving for p, Initial residual = 0.0200083, Final residual = 0.000374845, No Iterations 3
time step continuity errors : sum local = 0.0108082, global = 3.18996e-16, cumulative = 1.0569e-14
smoothSolver:  Solving for epsilon, Initial residual = 0.00464742, Final residual = 0.000353757, No Iterations 2
smoothSolver:  Solving for k, Initial residual = 0.0071609, Final residual = 0.000688041, No Iterations 2
ExecutionTime = 2.37 s  ClockTime = 6 s

Time = 113

smoothSolver:  Solving for Ux, Initial residual = 0.00235636, Final residual = 0.000193583, No Iterations 2
smoothSolver:  Solving for Uy, Initial residual = 0.0023522, Final residual = 0.000193536, No Iterations 2
GAMG:  Solving for p, Initial residual = 0.0200597, Final residual = 0.000370408, No Iterations 3
time step continuity errors : sum local = 0.0106446, global = -8.3631e-16, cumulative = 9.73265e-15
smoothSolver:  Solving for epsilon, Initial residual = 0.00464664, Final residual = 0.000351495, No Iterations 2
smoothSolver:  Solving for k, Initial residual = 0.00715064, Final residual = 0.000685049, No Iterations 2
ExecutionTime = 2.39 s  ClockTime = 6 s

Time = 114

smoothSolver:  Solving for Ux, Initial residual = 0.00234569, Final residual = 0.000193814, No Iterations 2
smoothSolver:  Solving for Uy, Initial residual = 0.00234146, Final residual = 0.000193729, No Iterations 2
GAMG:  Solving for p, Initial residual = 0.019699, Final residual = 0.00097491, No Iterations 2
time step continuity errors : sum local = 0.0277854, global = 1.31041e-16, cumulative = 9.86369e-15
smoothSolver:  Solving for epsilon, Initial residual = 0.00465105, Final residual = 0.000351213, No Iterations 2
smoothSolver:  Solving for k, Initial residual = 0.00714374, Final residual = 0.000682542, No Iterations 2
ExecutionTime = 2.4 s  ClockTime = 6 s

Time = 115

smoothSolver:  Solving for Ux, Initial residual = 0.00233686, Final residual = 0.000193509, No Iterations 2
smoothSolver:  Solving for Uy, Initial residual = 0.00233416, Final residual = 0.000193615, No Iterations 2
GAMG:  Solving for p, Initial residual = 0.0197507, Final residual = 0.000386425, No Iterations 3
time step continuity errors : sum local = 0.011063, global = -2.38193e-16, cumulative = 9.62549e-15
smoothSolver:  Solving for epsilon, Initial residual = 0.00463344, Final residual = 0.000349527, No Iterations 2
smoothSolver:  Solving for k, Initial residual = 0.0071405, Final residual = 0.000679893, No Iterations 2
ExecutionTime = 2.42 s  ClockTime = 6 s

Time = 116

[...]
GAMG:  Solving for p, Initial residual = 0.0011333, Final residual = 3.46819e-05, No Iterations 2
time step continuity errors : sum local = 0.000899476, global = 7.7663e-17, cumulative = 1.57099e-14
smoothSolver:  Solving for epsilon, Initial residual = 0.000220348, Final residual = 1.70154e-05, No Iterations 2
smoothSolver:  Solving for k, Initial residual = 0.000445071, Final residual = 3.97627e-05, No Iterations 2
ExecutionTime = 9.22 s  ClockTime = 24 s

Time = 473

smoothSolver:  Solving for Ux, Initial residual = 3.03802e-05, Final residual = 2.41742e-06, No Iterations 2
smoothSolver:  Solving for Uy, Initial residual = 3.04367e-05, Final residual = 2.4233e-06, No Iterations 2
GAMG:  Solving for p, Initial residual = 0.000958795, Final residual = 3.07746e-05, No Iterations 2
time step continuity errors : sum local = 0.000799474, global = -3.57388e-16, cumulative = 1.53525e-14
smoothSolver:  Solving for epsilon, Initial residual = 0.0002194, Final residual = 1.69005e-05, No Iterations 2
smoothSolver:  Solving for k, Initial residual = 0.000442365, Final residual = 3.95126e-05, No Iterations 2
ExecutionTime = 9.24 s  ClockTime = 24 s

Time = 474

smoothSolver:  Solving for Ux, Initial residual = 2.88614e-05, Final residual = 2.35814e-06, No Iterations 2
smoothSolver:  Solving for Uy, Initial residual = 2.89125e-05, Final residual = 2.36389e-06, No Iterations 2
GAMG:  Solving for p, Initial residual = 0.000921324, Final residual = 3.20278e-05, No Iterations 2
time step continuity errors : sum local = 0.000831193, global = -2.58635e-16, cumulative = 1.50938e-14
smoothSolver:  Solving for epsilon, Initial residual = 0.000218725, Final residual = 1.68192e-05, No Iterations 2
smoothSolver:  Solving for k, Initial residual = 0.000439695, Final residual = 3.92603e-05, No Iterations 2
ExecutionTime = 9.25 s  ClockTime = 24 s

Time = 475

smoothSolver:  Solving for Ux, Initial residual = 3.02988e-05, Final residual = 2.32419e-06, No Iterations 2
smoothSolver:  Solving for Uy, Initial residual = 3.03557e-05, Final residual = 2.33169e-06, No Iterations 2
GAMG:  Solving for p, Initial residual = 0.00111023, Final residual = 3.40276e-05, No Iterations 2
time step continuity errors : sum local = 0.000884061, global = -1.44787e-16, cumulative = 1.49491e-14
smoothSolver:  Solving for epsilon, Initial residual = 0.000217809, Final residual = 1.67156e-05, No Iterations 2
smoothSolver:  Solving for k, Initial residual = 0.00043738, Final residual = 3.8965e-05, No Iterations 2
ExecutionTime = 9.26 s  ClockTime = 24 s

Time = 476

smoothSolver:  Solving for Ux, Initial residual = 2.85045e-05, Final residual = 2.25761e-06, No Iterations 2
smoothSolver:  Solving for Uy, Initial residual = 2.85414e-05, Final residual = 2.26154e-06, No Iterations 2
GAMG:  Solving for p, Initial residual = 0.000934806, Final residual = 2.97185e-05, No Iterations 2
time step continuity errors : sum local = 0.000771907, global = 4.02082e-16, cumulative = 1.53511e-14
smoothSolver:  Solving for epsilon, Initial residual = 0.000216896, Final residual = 1.66053e-05, No Iterations 2
smoothSolver:  Solving for k, Initial residual = 0.000434755, Final residual = 3.87247e-05, No Iterations 2
ExecutionTime = 9.28 s  ClockTime = 25 s

Time = 477

smoothSolver:  Solving for Ux, Initial residual = 2.70291e-05, Final residual = 2.19989e-06, No Iterations 2
smoothSolver:  Solving for Uy, Initial residual = 2.70637e-05, Final residual = 2.20406e-06, No Iterations 2
GAMG:  Solving for p, Initial residual = 0.00089576, Final residual = 3.11393e-05, No Iterations 2
time step continuity errors : sum local = 0.000807029, global = -3.81355e-16, cumulative = 1.49698e-14
smoothSolver:  Solving for epsilon, Initial residual = 0.000216221, Final residual = 1.65323e-05, No Iterations 2
smoothSolver:  Solving for k, Initial residual = 0.000432152, Final residual = 3.84909e-05, No Iterations 2
ExecutionTime = 9.29 s  ClockTime = 25 s

Time = 478

smoothSolver:  Solving for Ux, Initial residual = 2.85181e-05, Final residual = 2.16877e-06, No Iterations 2
smoothSolver:  Solving for Uy, Initial residual = 2.85627e-05, Final residual = 2.17482e-06, No Iterations 2
GAMG:  Solving for p, Initial residual = 0.00108496, Final residual = 3.33483e-05, No Iterations 2
time step continuity errors : sum local = 0.000863453, global = 4.90966e-16, cumulative = 1.54607e-14
smoothSolver:  Solving for epsilon, Initial residual = 0.000215319, Final residual = 1.64371e-05, No Iterations 2
smoothSolver:  Solving for k, Initial residual = 0.000429847, Final residual = 3.8212e-05, No Iterations 2
ExecutionTime = 9.31 s  ClockTime = 25 s

Time = 479

smoothSolver:  Solving for Ux, Initial residual = 2.67535e-05, Final residual = 2.10466e-06, No Iterations 2
smoothSolver:  Solving for Uy, Initial residual = 2.67775e-05, Final residual = 2.10737e-06, No Iterations 2
GAMG:  Solving for p, Initial residual = 0.000909525, Final residual = 2.89786e-05, No Iterations 2
time step continuity errors : sum local = 0.000750636, global = 2.56505e-16, cumulative = 1.57173e-14
smoothSolver:  Solving for epsilon, Initial residual = 0.000214412, Final residual = 1.63336e-05, No Iterations 2
smoothSolver:  Solving for k, Initial residual = 0.00042724, Final residual = 3.79823e-05, No Iterations 2
ExecutionTime = 9.32 s  ClockTime = 25 s

Time = 480

smoothSolver:  Solving for Ux, Initial residual = 2.53082e-05, Final residual = 2.04965e-06, No Iterations 2
smoothSolver:  Solving for Uy, Initial residual = 2.53366e-05, Final residual = 2.05293e-06, No Iterations 2
GAMG:  Solving for p, Initial residual = 0.000869269, Final residual = 3.06189e-05, No Iterations 2
time step continuity errors : sum local = 0.000794459, global = 6.39287e-17, cumulative = 1.57812e-14
smoothSolver:  Solving for epsilon, Initial residual = 0.000213751, Final residual = 1.62681e-05, No Iterations 2
smoothSolver:  Solving for k, Initial residual = 0.000424684, Final residual = 3.77547e-05, No Iterations 2
ExecutionTime = 9.33 s  ClockTime = 25 s

Time = 481

smoothSolver:  Solving for Ux, Initial residual = 2.68345e-05, Final residual = 2.02394e-06, No Iterations 2
smoothSolver:  Solving for Uy, Initial residual = 2.68949e-05, Final residual = 2.03247e-06, No Iterations 2
GAMG:  Solving for p, Initial residual = 0.00106056, Final residual = 3.26823e-05, No Iterations 2
time step continuity errors : sum local = 0.000845817, global = 2.69504e-16, cumulative = 1.60507e-14
smoothSolver:  Solving for epsilon, Initial residual = 0.000212873, Final residual = 1.61815e-05, No Iterations 2
smoothSolver:  Solving for k, Initial residual = 0.000422325, Final residual = 3.7481e-05, No Iterations 2
ExecutionTime = 9.34 s  ClockTime = 25 s

Time = 482

smoothSolver:  Solving for Ux, Initial residual = 2.52329e-05, Final residual = 1.97842e-06, No Iterations 2
smoothSolver:  Solving for Uy, Initial residual = 2.52724e-05, Final residual = 1.98209e-06, No Iterations 2
GAMG:  Solving for p, Initial residual = 0.000900426, Final residual = 2.7762e-05, No Iterations 2
time step continuity errors : sum local = 0.000720215, global = -3.69706e-16, cumulative = 1.5681e-14
smoothSolver:  Solving for epsilon, Initial residual = 0.000212017, Final residual = 1.60863e-05, No Iterations 2
smoothSolver:  Solving for k, Initial residual = 0.000419648, Final residual = 3.72552e-05, No Iterations 2
ExecutionTime = 9.36 s  ClockTime = 25 s

Time = 483

smoothSolver:  Solving for Ux, Initial residual = 2.38991e-05, Final residual = 1.92909e-06, No Iterations 2
smoothSolver:  Solving for Uy, Initial residual = 2.39546e-05, Final residual = 1.93268e-06, No Iterations 2
GAMG:  Solving for p, Initial residual = 0.000857473, Final residual = 2.86515e-05, No Iterations 2
time step continuity errors : sum local = 0.000742051, global = -5.68695e-17, cumulative = 1.56241e-14
smoothSolver:  Solving for epsilon, Initial residual = 0.000211453, Final residual = 1.60263e-05, No Iterations 2
smoothSolver:  Solving for k, Initial residual = 0.000417123, Final residual = 3.70337e-05, No Iterations 2
ExecutionTime = 9.38 s  ClockTime = 25 s

Time = 484

smoothSolver:  Solving for Ux, Initial residual = 2.55124e-05, Final residual = 1.90406e-06, No Iterations 2
smoothSolver:  Solving for Uy, Initial residual = 2.55635e-05, Final residual = 1.90795e-06, No Iterations 2
GAMG:  Solving for p, Initial residual = 0.0010506, Final residual = 3.06827e-05, No Iterations 2
time step continuity errors : sum local = 0.000794403, global = -2.63718e-16, cumulative = 1.53604e-14
smoothSolver:  Solving for epsilon, Initial residual = 0.000210671, Final residual = 1.59472e-05, No Iterations 2
smoothSolver:  Solving for k, Initial residual = 0.000414933, Final residual = 3.67717e-05, No Iterations 2
ExecutionTime = 9.4 s  ClockTime = 25 s

Time = 485

smoothSolver:  Solving for Ux, Initial residual = 2.37476e-05, Final residual = 1.83528e-06, No Iterations 2
smoothSolver:  Solving for Uy, Initial residual = 2.37778e-05, Final residual = 1.8363e-06, No Iterations 2
GAMG:  Solving for p, Initial residual = 0.000876019, Final residual = 2.58878e-05, No Iterations 2
time step continuity errors : sum local = 0.000670837, global = 1.1353e-16, cumulative = 1.54739e-14
smoothSolver:  Solving for epsilon, Initial residual = 0.000209872, Final residual = 1.58594e-05, No Iterations 2
smoothSolver:  Solving for k, Initial residual = 0.000412413, Final residual = 3.65584e-05, No Iterations 2
ExecutionTime = 9.42 s  ClockTime = 25 s

Time = 486

smoothSolver:  Solving for Ux, Initial residual = 2.23477e-05, Final residual = 1.78025e-06, No Iterations 2
smoothSolver:  Solving for Uy, Initial residual = 2.23848e-05, Final residual = 1.78169e-06, No Iterations 2
GAMG:  Solving for p, Initial residual = 0.000835778, Final residual = 2.75388e-05, No Iterations 2
time step continuity errors : sum local = 0.000712602, global = -2.04752e-17, cumulative = 1.54534e-14
smoothSolver:  Solving for epsilon, Initial residual = 0.000209303, Final residual = 1.58052e-05, No Iterations 2
smoothSolver:  Solving for k, Initial residual = 0.000409937, Final residual = 3.63461e-05, No Iterations 2
ExecutionTime = 9.44 s  ClockTime = 25 s

Time = 487

smoothSolver:  Solving for Ux, Initial residual = 2.3987e-05, Final residual = 1.76073e-06, No Iterations 2
smoothSolver:  Solving for Uy, Initial residual = 2.40467e-05, Final residual = 1.76431e-06, No Iterations 2
GAMG:  Solving for p, Initial residual = 0.00102651, Final residual = 3.02563e-05, No Iterations 2
time step continuity errors : sum local = 0.000782941, global = 3.25254e-16, cumulative = 1.57787e-14
smoothSolver:  Solving for epsilon, Initial residual = 0.000208565, Final residual = 1.57314e-05, No Iterations 2
smoothSolver:  Solving for k, Initial residual = 0.000407807, Final residual = 3.60934e-05, No Iterations 2
ExecutionTime = 9.45 s  ClockTime = 25 s

Time = 488

smoothSolver:  Solving for Ux, Initial residual = 2.23681e-05, Final residual = 1.70851e-06, No Iterations 2
smoothSolver:  Solving for Uy, Initial residual = 2.2408e-05, Final residual = 1.70854e-06, No Iterations 2
GAMG:  Solving for p, Initial residual = 0.000853962, Final residual = 2.5647e-05, No Iterations 2
time step continuity errors : sum local = 0.000664414, global = 4.09438e-16, cumulative = 1.61881e-14
smoothSolver:  Solving for epsilon, Initial residual = 0.000207834, Final residual = 1.56499e-05, No Iterations 2
smoothSolver:  Solving for k, Initial residual = 0.000405375, Final residual = 3.58875e-05, No Iterations 2
ExecutionTime = 9.47 s  ClockTime = 25 s

Time = 489

smoothSolver:  Solving for Ux, Initial residual = 2.10963e-05, Final residual = 1.66532e-06, No Iterations 2
smoothSolver:  Solving for Uy, Initial residual = 2.11372e-05, Final residual = 1.66579e-06, No Iterations 2
GAMG:  Solving for p, Initial residual = 0.000813468, Final residual = 2.73023e-05, No Iterations 2
time step continuity errors : sum local = 0.000707122, global = 2.60754e-16, cumulative = 1.64489e-14
smoothSolver:  Solving for epsilon, Initial residual = 0.000207349, Final residual = 1.56045e-05, No Iterations 2
smoothSolver:  Solving for k, Initial residual = 0.000403024, Final residual = 3.56853e-05, No Iterations 2
ExecutionTime = 9.48 s  ClockTime = 25 s

Time = 490

smoothSolver:  Solving for Ux, Initial residual = 2.28004e-05, Final residual = 1.65298e-06, No Iterations 2
smoothSolver:  Solving for Uy, Initial residual = 2.28516e-05, Final residual = 1.65507e-06, No Iterations 2
GAMG:  Solving for p, Initial residual = 0.00100821, Final residual = 3.00234e-05, No Iterations 2
time step continuity errors : sum local = 0.00077864, global = -7.63906e-16, cumulative = 1.5685e-14
smoothSolver:  Solving for epsilon, Initial residual = 0.000206685, Final residual = 1.55379e-05, No Iterations 2
smoothSolver:  Solving for k, Initial residual = 0.000401026, Final residual = 3.54438e-05, No Iterations 2
ExecutionTime = 9.49 s  ClockTime = 25 s

Time = 491

smoothSolver:  Solving for Ux, Initial residual = 2.11341e-05, Final residual = 1.59912e-06, No Iterations 2
smoothSolver:  Solving for Uy, Initial residual = 2.11605e-05, Final residual = 1.59849e-06, No Iterations 2
GAMG:  Solving for p, Initial residual = 0.000835567, Final residual = 2.52175e-05, No Iterations 2
time step continuity errors : sum local = 0.000655429, global = 3.89742e-16, cumulative = 1.60747e-14
smoothSolver:  Solving for epsilon, Initial residual = 0.000206019, Final residual = 1.5461e-05, No Iterations 2
smoothSolver:  Solving for k, Initial residual = 0.0003987, Final residual = 3.5249e-05, No Iterations 2
ExecutionTime = 9.51 s  ClockTime = 25 s

Time = 492

smoothSolver:  Solving for Ux, Initial residual = 1.98254e-05, Final residual = 1.55497e-06, No Iterations 2
smoothSolver:  Solving for Uy, Initial residual = 1.98555e-05, Final residual = 1.55531e-06, No Iterations 2
GAMG:  Solving for p, Initial residual = 0.0007933, Final residual = 2.69461e-05, No Iterations 2
time step continuity errors : sum local = 0.000701179, global = -3.26758e-16, cumulative = 1.5748e-14
smoothSolver:  Solving for epsilon, Initial residual = 0.000205564, Final residual = 1.54186e-05, No Iterations 2
smoothSolver:  Solving for k, Initial residual = 0.000396461, Final residual = 3.50559e-05, No Iterations 2
ExecutionTime = 9.52 s  ClockTime = 25 s

Time = 493

smoothSolver:  Solving for Ux, Initial residual = 2.1541e-05, Final residual = 1.54492e-06, No Iterations 2
smoothSolver:  Solving for Uy, Initial residual = 2.15825e-05, Final residual = 1.54672e-06, No Iterations 2
GAMG:  Solving for p, Initial residual = 0.000986632, Final residual = 2.98897e-05, No Iterations 2
time step continuity errors : sum local = 0.000775128, global = 1.63911e-16, cumulative = 1.59119e-14
smoothSolver:  Solving for epsilon, Initial residual = 0.000204923, Final residual = 1.53563e-05, No Iterations 2
smoothSolver:  Solving for k, Initial residual = 0.000394571, Final residual = 3.48236e-05, No Iterations 2
ExecutionTime = 9.54 s  ClockTime = 25 s

Time = 494

smoothSolver:  Solving for Ux, Initial residual = 1.99076e-05, Final residual = 1.49658e-06, No Iterations 2
smoothSolver:  Solving for Uy, Initial residual = 1.99228e-05, Final residual = 1.49533e-06, No Iterations 2
GAMG:  Solving for p, Initial residual = 0.000816253, Final residual = 2.49937e-05, No Iterations 2
time step continuity errors : sum local = 0.000651656, global = 3.71715e-16, cumulative = 1.62836e-14
smoothSolver:  Solving for epsilon, Initial residual = 0.000204278, Final residual = 1.52827e-05, No Iterations 2
smoothSolver:  Solving for k, Initial residual = 0.000392306, Final residual = 3.46382e-05, No Iterations 2
ExecutionTime = 9.55 s  ClockTime = 25 s

Time = 495

smoothSolver:  Solving for Ux, Initial residual = 1.86558e-05, Final residual = 1.4589e-06, No Iterations 2
smoothSolver:  Solving for Uy, Initial residual = 1.86723e-05, Final residual = 1.45854e-06, No Iterations 2
GAMG:  Solving for p, Initial residual = 0.000777481, Final residual = 2.66144e-05, No Iterations 2
time step continuity errors : sum local = 0.000693811, global = -6.93412e-17, cumulative = 1.62143e-14
smoothSolver:  Solving for epsilon, Initial residual = 0.000203842, Final residual = 1.52425e-05, No Iterations 2
smoothSolver:  Solving for k, Initial residual = 0.000390115, Final residual = 3.44531e-05, No Iterations 2
ExecutionTime = 9.57 s  ClockTime = 25 s

Time = 496

smoothSolver:  Solving for Ux, Initial residual = 2.04323e-05, Final residual = 1.45534e-06, No Iterations 2
smoothSolver:  Solving for Uy, Initial residual = 2.04609e-05, Final residual = 1.45615e-06, No Iterations 2
GAMG:  Solving for p, Initial residual = 0.000974706, Final residual = 2.95663e-05, No Iterations 2
time step continuity errors : sum local = 0.000767022, global = 3.44291e-16, cumulative = 1.65585e-14
smoothSolver:  Solving for epsilon, Initial residual = 0.000203231, Final residual = 1.5184e-05, No Iterations 2
smoothSolver:  Solving for k, Initial residual = 0.000388282, Final residual = 3.42278e-05, No Iterations 2
ExecutionTime = 9.59 s  ClockTime = 25 s

Time = 497

smoothSolver:  Solving for Ux, Initial residual = 1.882e-05, Final residual = 1.41004e-06, No Iterations 2
smoothSolver:  Solving for Uy, Initial residual = 1.88234e-05, Final residual = 1.40788e-06, No Iterations 2
GAMG:  Solving for p, Initial residual = 0.00080022, Final residual = 2.4433e-05, No Iterations 2
time step continuity errors : sum local = 0.000636965, global = 7.67409e-17, cumulative = 1.66353e-14
smoothSolver:  Solving for epsilon, Initial residual = 0.000202604, Final residual = 1.51143e-05, No Iterations 2
smoothSolver:  Solving for k, Initial residual = 0.000386069, Final residual = 3.40485e-05, No Iterations 2
ExecutionTime = 9.61 s  ClockTime = 25 s

Time = 498

smoothSolver:  Solving for Ux, Initial residual = 1.76048e-05, Final residual = 1.37492e-06, No Iterations 2
smoothSolver:  Solving for Uy, Initial residual = 1.76139e-05, Final residual = 1.374e-06, No Iterations 2
GAMG:  Solving for p, Initial residual = 0.000756542, Final residual = 2.61163e-05, No Iterations 2
time step continuity errors : sum local = 0.000680609, global = 8.88294e-16, cumulative = 1.75236e-14
smoothSolver:  Solving for epsilon, Initial residual = 0.000202166, Final residual = 1.50766e-05, No Iterations 2
smoothSolver:  Solving for k, Initial residual = 0.000383915, Final residual = 3.38704e-05, No Iterations 2
ExecutionTime = 9.63 s  ClockTime = 25 s

Time = 499

smoothSolver:  Solving for Ux, Initial residual = 1.94271e-05, Final residual = 1.37557e-06, No Iterations 2
smoothSolver:  Solving for Uy, Initial residual = 1.94513e-05, Final residual = 1.37628e-06, No Iterations 2
GAMG:  Solving for p, Initial residual = 0.000957414, Final residual = 2.94207e-05, No Iterations 2
time step continuity errors : sum local = 0.000763379, global = -2.28806e-16, cumulative = 1.72948e-14
smoothSolver:  Solving for epsilon, Initial residual = 0.00020155, Final residual = 1.50192e-05, No Iterations 2
smoothSolver:  Solving for k, Initial residual = 0.000382125, Final residual = 3.36507e-05, No Iterations 2
ExecutionTime = 9.65 s  ClockTime = 25 s

Time = 500

smoothSolver:  Solving for Ux, Initial residual = 1.78479e-05, Final residual = 1.33357e-06, No Iterations 2
smoothSolver:  Solving for Uy, Initial residual = 1.78503e-05, Final residual = 1.33145e-06, No Iterations 2
GAMG:  Solving for p, Initial residual = 0.000793068, Final residual = 2.44912e-05, No Iterations 2
time step continuity errors : sum local = 0.00063906, global = 2.59382e-16, cumulative = 1.75542e-14
smoothSolver:  Solving for epsilon, Initial residual = 0.000200912, Final residual = 1.49522e-05, No Iterations 2
smoothSolver:  Solving for k, Initial residual = 0.000379936, Final residual = 3.34744e-05, No Iterations 2
ExecutionTime = 9.72 s  ClockTime = 26 s

End

